   Input file: Z:\0Owncloud\Colleges\AESB1120-15_Introduction to Chemistry and Chemical Thermodynamics\2021\Practical2020_Week_2.1\Answer\Phrqc1.pqi
  Output file: Z:\0Owncloud\Colleges\AESB1120-15_Introduction to Chemistry and Chemical Thermodynamics\2021\Practical2020_Week_2.1\Answer\Phrqc1.pqo
Database file: C:\Program Files (x86)\USGS\Phreeqc Interactive 3.6.2-15100\database\phreeqc.dat

------------------
Reading data base.
------------------

	SOLUTION_MASTER_SPECIES
	SOLUTION_SPECIES
	PHASES
	EXCHANGE_MASTER_SPECIES
	EXCHANGE_SPECIES
	SURFACE_MASTER_SPECIES
	SURFACE_SPECIES
	RATES
	END
------------------------------------
Reading input data for simulation 1.
------------------------------------

	DATABASE C:\Program Files (x86)\USGS\Phreeqc Interactive 3.6.2-15100\database\phreeqc.dat
	SOLUTION_SPREAD
	    units    mg/l
	 temp	   pH	     C(4)	  Ca	   Mg	  Na	    K	   F	  Cl	     S(6)
	    	     	 as HCO3-	    	     	    	     	    	    	 as SO4-2
	 24.3	 7.32	      308	 165	 25.4	 5.1	 14.2	   1	 3.3	      283
	 24.6	 7.23	      316	 168	   28	 3.9	 14.8	 1.1	 3.5	      291
	 24.7	  7.2	      315	 169	 26.2	 3.9	 14.3	 1.1	 5.8	      296
	 20.5	 8.06	      311	 164	 25.2	 3.7	   14	   1	 3.5	      283
	SELECTED_OUTPUT 1
	    file                 Demo01.csv
	    reset                false
	    solution             true
	    ph                   true
	    temperature          true
	    alkalinity           true
	    ionic_strength       true
	    charge_balance       true
	    percent_error        true
	    molalities           Ca+2  HCO3-  CO3-2
	    saturation_indices   CO2(g)  Calcite
	END
-------------------------------------------
Beginning of initial solution calculations.
-------------------------------------------

Initial solution 1.	

-----------------------------Solution composition------------------------------

	Elements           Molality       Moles

	C(4)              5.052e-03   5.052e-03
	Ca                4.120e-03   4.120e-03
	Cl                9.316e-05   9.316e-05
	F                 5.268e-05   5.268e-05
	K                 3.634e-04   3.634e-04
	Mg                1.046e-03   1.046e-03
	Na                2.220e-04   2.220e-04
	S(6)              2.948e-03   2.948e-03

----------------------------Description of solution----------------------------

                                       pH  =   7.320    
                                       pe  =   4.000    
      Specific Conductance (µS/cm,  24°C)  = 922
                          Density (g/cm³)  =   0.99793
                               Volume (L)  =   1.00288
                        Activity of water  =   1.000
                 Ionic strength (mol/kgw)  =   1.582e-02
                       Mass of water (kg)  =   1.000e+00
                 Total alkalinity (eq/kg)  =   4.646e-03
                       Total CO2 (mol/kg)  =   5.052e-03
                         Temperature (°C)  =  24.30
                  Electrical balance (eq)  =   2.281e-04
 Percent error, 100*(Cat-|An|)/(Cat+|An|)  =   1.23
                               Iterations  =   7
                                  Total H  = 1.110170e+02
                                  Total O  = 5.553274e+01

----------------------------Distribution of species----------------------------

                                               Log       Log       Log    mole V
   Species          Molality    Activity  Molality  Activity     Gamma   cm³/mol

   OH-             2.280e-07   2.004e-07    -6.642    -6.698    -0.056     -4.03
   H+              5.330e-08   4.786e-08    -7.273    -7.320    -0.047      0.00
   H2O             5.551e+01   9.998e-01     1.744    -0.000     0.000     18.07
C(4)          5.052e-03
   HCO3-           4.455e-03   3.949e-03    -2.351    -2.404    -0.052     24.75
   CO2             4.272e-04   4.288e-04    -3.369    -3.368     0.002     34.40
   CaHCO3+         1.199e-04   1.066e-04    -3.921    -3.972    -0.051      9.71
   MgHCO3+         2.758e-05   2.430e-05    -4.559    -4.614    -0.055      5.53
   CaCO3           1.346e-05   1.351e-05    -4.871    -4.869     0.002    -14.60
   CO3-2           6.180e-06   3.814e-06    -5.209    -5.419    -0.210     -4.97
   MgCO3           1.893e-06   1.900e-06    -5.723    -5.721     0.002    -17.09
   NaHCO3          4.321e-07   4.337e-07    -6.364    -6.363     0.002      1.80
   NaCO3-          1.512e-08   1.334e-08    -7.820    -7.875    -0.054     -0.94
   (CO2)2          3.285e-09   3.297e-09    -8.483    -8.482     0.002     68.80
Ca            4.120e-03
   Ca+2            3.466e-03   2.138e-03    -2.460    -2.670    -0.210    -17.86
   CaSO4           5.205e-04   5.224e-04    -3.284    -3.282     0.002      7.47
   CaHCO3+         1.199e-04   1.066e-04    -3.921    -3.972    -0.051      9.71
   CaCO3           1.346e-05   1.351e-05    -4.871    -4.869     0.002    -14.60
   CaOH+           8.403e-09   7.412e-09    -8.076    -8.130    -0.054     (0)  
   CaHSO4+         1.845e-10   1.627e-10    -9.734    -9.789    -0.054     (0)  
Cl            9.316e-05
   Cl-             9.316e-05   8.199e-05    -4.031    -4.086    -0.055     18.14
F             5.268e-05
   F-              5.093e-05   4.477e-05    -4.293    -4.349    -0.056     -1.23
   MgF+            1.745e-06   1.541e-06    -5.758    -5.812    -0.054    -10.50
   NaF             4.993e-09   5.011e-09    -8.302    -8.300     0.002      7.24
   HF              3.162e-09   3.173e-09    -8.500    -8.498     0.002     12.47
   HF2-            6.146e-13   5.421e-13   -12.211   -12.266    -0.054     22.12
H(0)          3.254e-26
   H2              1.627e-26   1.633e-26   -25.789   -25.787     0.002     28.61
K             3.634e-04
   K+              3.600e-04   3.167e-04    -3.444    -3.499    -0.056      9.07
   KSO4-           3.425e-06   3.036e-06    -5.465    -5.518    -0.052     34.18
Mg            1.046e-03
   Mg+2            8.472e-04   5.276e-04    -3.072    -3.278    -0.206    -21.52
   MgSO4           1.672e-04   1.678e-04    -3.777    -3.775     0.002      5.81
   MgHCO3+         2.758e-05   2.430e-05    -4.559    -4.614    -0.055      5.53
   MgCO3           1.893e-06   1.900e-06    -5.723    -5.721     0.002    -17.09
   MgF+            1.745e-06   1.541e-06    -5.758    -5.812    -0.054    -10.50
   MgOH+           4.219e-08   3.756e-08    -7.375    -7.425    -0.051     (0)  
Na            2.220e-04
   Na+             2.201e-04   1.945e-04    -3.657    -3.711    -0.054     -1.38
   NaSO4-          1.512e-06   1.341e-06    -5.820    -5.873    -0.052     14.58
   NaHCO3          4.321e-07   4.337e-07    -6.364    -6.363     0.002      1.80
   NaCO3-          1.512e-08   1.334e-08    -7.820    -7.875    -0.054     -0.94
   NaF             4.993e-09   5.011e-09    -8.302    -8.300     0.002      7.24
   NaOH            3.884e-21   3.898e-21   -20.411   -20.409     0.002     (0)  
O(0)          0.000e+00
   O2              0.000e+00   0.000e+00   -41.034   -41.033     0.002     30.35
S(6)          2.948e-03
   SO4-2           2.256e-03   1.381e-03    -2.647    -2.860    -0.213     14.78
   CaSO4           5.205e-04   5.224e-04    -3.284    -3.282     0.002      7.47
   MgSO4           1.672e-04   1.678e-04    -3.777    -3.775     0.002      5.81
   KSO4-           3.425e-06   3.036e-06    -5.465    -5.518    -0.052     34.18
   NaSO4-          1.512e-06   1.341e-06    -5.820    -5.873    -0.052     14.58
   HSO4-           7.176e-09   6.330e-09    -8.144    -8.199    -0.054     40.32
   CaHSO4+         1.845e-10   1.627e-10    -9.734    -9.789    -0.054     (0)  

------------------------------Saturation indices-------------------------------

  Phase               SI** log IAP   log K(297 K,   1 atm)

  Anhydrite        -1.26     -5.53   -4.27  CaSO4
  Aragonite         0.24     -8.09   -8.33  CaCO3
  Calcite           0.39     -8.09   -8.48  CaCO3
  CO2(g)           -1.91     -3.37   -1.46  CO2
  Dolomite          0.29    -16.78  -17.07  CaMg(CO3)2
  Fluorite         -0.76    -11.37  -10.61  CaF2
  Gypsum           -0.95     -5.53   -4.58  CaSO4:2H2O
  H2(g)           -22.69    -25.79   -3.10  H2
  H2O(g)           -1.52     -0.00    1.52  H2O
  Halite           -9.37     -7.80    1.57  NaCl
  O2(g)           -38.15    -41.03   -2.89  O2
  Sylvite          -8.48     -7.59    0.90  KCl

**For a gas, SI = log10(fugacity). Fugacity = pressure * phi / 1 atm.
  For ideal gases, phi = 1.

Initial solution 2.	

-----------------------------Solution composition------------------------------

	Elements           Molality       Moles

	C(4)              5.183e-03   5.183e-03
	Ca                4.195e-03   4.195e-03
	Cl                9.880e-05   9.880e-05
	F                 5.795e-05   5.795e-05
	K                 3.788e-04   3.788e-04
	Mg                1.153e-03   1.153e-03
	Na                1.698e-04   1.698e-04
	S(6)              3.032e-03   3.032e-03

----------------------------Description of solution----------------------------

                                       pH  =   7.230    
                                       pe  =   4.000    
      Specific Conductance (µS/cm,  25°C)  = 946
                          Density (g/cm³)  =   0.99787
                               Volume (L)  =   1.00295
                        Activity of water  =   1.000
                 Ionic strength (mol/kgw)  =   1.620e-02
                       Mass of water (kg)  =   1.000e+00
                 Total alkalinity (eq/kg)  =   4.675e-03
                       Total CO2 (mol/kg)  =   5.183e-03
                         Temperature (°C)  =  24.60
                  Electrical balance (eq)  =   3.490e-04
 Percent error, 100*(Cat-|An|)/(Cat+|An|)  =   1.85
                               Iterations  =   7 (14 overall)
                                  Total H  = 1.110171e+02
                                  Total O  = 5.553337e+01

----------------------------Distribution of species----------------------------

                                               Log       Log       Log    mole V
   Species          Molality    Activity  Molality  Activity     Gamma   cm³/mol

   OH-             1.899e-07   1.667e-07    -6.722    -6.778    -0.057     -4.02
   H+              6.564e-08   5.888e-08    -7.183    -7.230    -0.047      0.00
   H2O             5.551e+01   9.998e-01     1.744    -0.000     0.000     18.07
C(4)          5.183e-03
   HCO3-           4.485e-03   3.970e-03    -2.348    -2.401    -0.053     24.78
   CO2             5.264e-04   5.284e-04    -3.279    -3.277     0.002     34.41
   CaHCO3+         1.227e-04   1.089e-04    -3.911    -3.963    -0.052      9.73
   MgHCO3+         3.042e-05   2.677e-05    -4.517    -4.572    -0.056      5.54
   CaCO3           1.127e-05   1.131e-05    -4.948    -4.947     0.002    -14.60
   CO3-2           5.107e-06   3.137e-06    -5.292    -5.504    -0.212     -4.94
   MgCO3           1.710e-06   1.717e-06    -5.767    -5.765     0.002    -17.09
   NaHCO3          3.312e-07   3.324e-07    -6.480    -6.478     0.002      1.80
   NaCO3-          9.653e-09   8.503e-09    -8.015    -8.070    -0.055     -0.90
   (CO2)2          5.039e-09   5.057e-09    -8.298    -8.296     0.002     68.83
Ca            4.195e-03
   Ca+2            3.525e-03   2.164e-03    -2.453    -2.665    -0.212    -17.86
   CaSO4           5.362e-04   5.382e-04    -3.271    -3.269     0.002      7.49
   CaHCO3+         1.227e-04   1.089e-04    -3.911    -3.963    -0.052      9.73
   CaCO3           1.127e-05   1.131e-05    -4.948    -4.947     0.002    -14.60
   CaOH+           6.921e-09   6.097e-09    -8.160    -8.215    -0.055     (0)  
   CaHSO4+         2.352e-10   2.071e-10    -9.629    -9.684    -0.055     (0)  
Cl            9.880e-05
   Cl-             9.880e-05   8.684e-05    -4.005    -4.061    -0.056     18.15
F             5.795e-05
   F-              5.583e-05   4.901e-05    -4.253    -4.310    -0.057     -1.23
   MgF+            2.104e-06   1.855e-06    -5.677    -5.732    -0.055    -10.50
   HF              4.281e-09   4.297e-09    -8.368    -8.367     0.002     12.48
   NaF             4.174e-09   4.190e-09    -8.379    -8.378     0.002      7.25
   HF2-            9.146e-13   8.057e-13   -12.039   -12.094    -0.055     22.13
H(0)          4.911e-26
   H2              2.455e-26   2.465e-26   -25.610   -25.608     0.002     28.61
K             3.788e-04
   K+              3.752e-04   3.295e-04    -3.426    -3.482    -0.056      9.08
   KSO4-           3.644e-06   3.226e-06    -5.438    -5.491    -0.053     34.18
Mg            1.153e-03
   Mg+2            9.312e-04   5.772e-04    -3.031    -3.239    -0.208    -21.53
   MgSO4           1.872e-04   1.879e-04    -3.728    -3.726     0.002      5.82
   MgHCO3+         3.042e-05   2.677e-05    -4.517    -4.572    -0.056      5.54
   MgF+            2.104e-06   1.855e-06    -5.677    -5.732    -0.055    -10.50
   MgCO3           1.710e-06   1.717e-06    -5.767    -5.765     0.002    -17.09
   MgOH+           3.859e-08   3.431e-08    -7.414    -7.465    -0.051     (0)  
Na            1.698e-04
   Na+             1.683e-04   1.486e-04    -3.774    -3.828    -0.054     -1.36
   NaSO4-          1.177e-06   1.042e-06    -5.929    -5.982    -0.053     14.58
   NaHCO3          3.312e-07   3.324e-07    -6.480    -6.478     0.002      1.80
   NaCO3-          9.653e-09   8.503e-09    -8.015    -8.070    -0.055     -0.90
   NaF             4.174e-09   4.190e-09    -8.379    -8.378     0.002      7.25
   NaOH            2.467e-21   2.476e-21   -20.608   -20.606     0.002     (0)  
O(0)          0.000e+00
   O2              0.000e+00   0.000e+00   -41.295   -41.293     0.002     30.37
S(6)          3.032e-03
   SO4-2           2.303e-03   1.403e-03    -2.638    -2.853    -0.215     14.82
   CaSO4           5.362e-04   5.382e-04    -3.271    -3.269     0.002      7.49
   MgSO4           1.872e-04   1.879e-04    -3.728    -3.726     0.002      5.82
   KSO4-           3.644e-06   3.226e-06    -5.438    -5.491    -0.053     34.18
   NaSO4-          1.177e-06   1.042e-06    -5.929    -5.982    -0.053     14.58
   HSO4-           9.040e-09   7.963e-09    -8.044    -8.099    -0.055     40.34
   CaHSO4+         2.352e-10   2.071e-10    -9.629    -9.684    -0.055     (0)  

------------------------------Saturation indices-------------------------------

  Phase               SI** log IAP   log K(297 K,   1 atm)

  Anhydrite        -1.24     -5.52   -4.27  CaSO4
  Aragonite         0.17     -8.17   -8.33  CaCO3
  Calcite           0.31     -8.17   -8.48  CaCO3
  CO2(g)           -1.81     -3.28   -1.46  CO2
  Dolomite          0.17    -16.91  -17.08  CaMg(CO3)2
  Fluorite         -0.68    -11.28  -10.60  CaF2
  Gypsum           -0.94     -5.52   -4.58  CaSO4:2H2O
  H2(g)           -22.51    -25.61   -3.10  H2
  H2O(g)           -1.51     -0.00    1.51  H2O
  Halite           -9.46     -7.89    1.57  NaCl
  O2(g)           -38.40    -41.29   -2.89  O2
  Sylvite          -8.44     -7.54    0.90  KCl

**For a gas, SI = log10(fugacity). Fugacity = pressure * phi / 1 atm.
  For ideal gases, phi = 1.

Initial solution 3.	

-----------------------------Solution composition------------------------------

	Elements           Molality       Moles

	C(4)              5.167e-03   5.167e-03
	Ca                4.220e-03   4.220e-03
	Cl                1.637e-04   1.637e-04
	F                 5.795e-05   5.795e-05
	K                 3.660e-04   3.660e-04
	Mg                1.079e-03   1.079e-03
	Na                1.698e-04   1.698e-04
	S(6)              3.084e-03   3.084e-03

----------------------------Description of solution----------------------------

                                       pH  =   7.200    
                                       pe  =   4.000    
      Specific Conductance (µS/cm,  25°C)  = 952
                          Density (g/cm³)  =   0.99785
                               Volume (L)  =   1.00298
                        Activity of water  =   1.000
                 Ionic strength (mol/kgw)  =   1.620e-02
                       Mass of water (kg)  =   1.000e+00
                 Total alkalinity (eq/kg)  =   4.626e-03
                       Total CO2 (mol/kg)  =   5.167e-03
                         Temperature (°C)  =  24.70
                  Electrical balance (eq)  =   1.181e-04
 Percent error, 100*(Cat-|An|)/(Cat+|An|)  =   0.63
                               Iterations  =   7 (21 overall)
                                  Total H  = 1.110170e+02
                                  Total O  = 5.553349e+01

----------------------------Distribution of species----------------------------

                                               Log       Log       Log    mole V
   Species          Molality    Activity  Molality  Activity     Gamma   cm³/mol

   OH-             1.786e-07   1.567e-07    -6.748    -6.805    -0.057     -4.01
   H+              7.033e-08   6.310e-08    -7.153    -7.200    -0.047      0.00
   H2O             5.551e+01   9.998e-01     1.744    -0.000     0.000     18.07
C(4)          5.167e-03
   HCO3-           4.441e-03   3.932e-03    -2.352    -2.405    -0.053     24.79
   CO2             5.579e-04   5.600e-04    -3.253    -3.252     0.002     34.42
   CaHCO3+         1.222e-04   1.084e-04    -3.913    -3.965    -0.052      9.73
   MgHCO3+         2.810e-05   2.473e-05    -4.551    -4.607    -0.056      5.54
   CaCO3           1.049e-05   1.053e-05    -4.979    -4.977     0.002    -14.60
   CO3-2           4.730e-06   2.905e-06    -5.325    -5.537    -0.212     -4.93
   MgCO3           1.479e-06   1.485e-06    -5.830    -5.828     0.002    -17.09
   NaHCO3          3.277e-07   3.290e-07    -6.484    -6.483     0.002      1.80
   NaCO3-          8.983e-09   7.913e-09    -8.047    -8.102    -0.055     -0.90
   (CO2)2          5.678e-09   5.699e-09    -8.246    -8.244     0.002     68.84
Ca            4.220e-03
   Ca+2            3.538e-03   2.171e-03    -2.451    -2.663    -0.212    -17.86
   CaSO4           5.496e-04   5.517e-04    -3.260    -3.258     0.002      7.49
   CaHCO3+         1.222e-04   1.084e-04    -3.913    -3.965    -0.052      9.73
   CaCO3           1.049e-05   1.053e-05    -4.979    -4.977     0.002    -14.60
   CaOH+           6.482e-09   5.710e-09    -8.188    -8.243    -0.055     (0)  
   CaHSO4+         2.586e-10   2.278e-10    -9.587    -9.642    -0.055     (0)  
Cl            1.637e-04
   Cl-             1.637e-04   1.439e-04    -3.786    -3.842    -0.056     18.16
F             5.795e-05
   F-              5.597e-05   4.913e-05    -4.252    -4.309    -0.057     -1.23
   MgF+            1.970e-06   1.738e-06    -5.705    -5.760    -0.055    -10.50
   HF              4.607e-09   4.624e-09    -8.337    -8.335     0.002     12.49
   NaF             4.184e-09   4.199e-09    -8.378    -8.377     0.002      7.25
   HF2-            9.872e-13   8.696e-13   -12.006   -12.061    -0.055     22.14
H(0)          5.633e-26
   H2              2.816e-26   2.827e-26   -25.550   -25.549     0.002     28.61
K             3.660e-04
   K+              3.624e-04   3.183e-04    -3.441    -3.497    -0.056      9.08
   KSO4-           3.599e-06   3.186e-06    -5.444    -5.497    -0.053     34.19
Mg            1.079e-03
   Mg+2            8.684e-04   5.382e-04    -3.061    -3.269    -0.208    -21.53
   MgSO4           1.786e-04   1.793e-04    -3.748    -3.746     0.002      5.83
   MgHCO3+         2.810e-05   2.473e-05    -4.551    -4.607    -0.056      5.54
   MgF+            1.970e-06   1.738e-06    -5.705    -5.760    -0.055    -10.50
   MgCO3           1.479e-06   1.485e-06    -5.830    -5.828     0.002    -17.09
   MgOH+           3.389e-08   3.013e-08    -7.470    -7.521    -0.051     (0)  
Na            1.698e-04
   Na+             1.682e-04   1.485e-04    -3.774    -3.828    -0.054     -1.36
   NaSO4-          1.202e-06   1.064e-06    -5.920    -5.973    -0.053     14.58
   NaHCO3          3.277e-07   3.290e-07    -6.484    -6.483     0.002      1.80
   NaCO3-          8.983e-09   7.913e-09    -8.047    -8.102    -0.055     -0.90
   NaF             4.184e-09   4.199e-09    -8.378    -8.377     0.002      7.25
   NaOH            2.320e-21   2.328e-21   -20.635   -20.633     0.002     (0)  
O(0)          0.000e+00
   O2              0.000e+00   0.000e+00   -41.381   -41.380     0.002     30.38
S(6)          3.084e-03
   SO4-2           2.351e-03   1.432e-03    -2.629    -2.844    -0.215     14.83
   CaSO4           5.496e-04   5.517e-04    -3.260    -3.258     0.002      7.49
   MgSO4           1.786e-04   1.793e-04    -3.748    -3.746     0.002      5.83
   KSO4-           3.599e-06   3.186e-06    -5.444    -5.497    -0.053     34.19
   NaSO4-          1.202e-06   1.064e-06    -5.920    -5.973    -0.053     14.58
   HSO4-           9.907e-09   8.727e-09    -8.004    -8.059    -0.055     40.35
   CaHSO4+         2.586e-10   2.278e-10    -9.587    -9.642    -0.055     (0)  

------------------------------Saturation indices-------------------------------

  Phase               SI** log IAP   log K(297 K,   1 atm)

  Anhydrite        -1.23     -5.51   -4.27  CaSO4
  Aragonite         0.13     -8.20   -8.33  CaCO3
  Calcite           0.28     -8.20   -8.48  CaCO3
  CO2(g)           -1.79     -3.25   -1.46  CO2
  Dolomite          0.08    -17.01  -17.08  CaMg(CO3)2
  Fluorite         -0.68    -11.28  -10.60  CaF2
  Gypsum           -0.93     -5.51   -4.58  CaSO4:2H2O
  H2(g)           -22.45    -25.55   -3.10  H2
  H2O(g)           -1.51     -0.00    1.51  H2O
  Halite           -9.24     -7.67    1.57  NaCl
  O2(g)           -38.49    -41.38   -2.89  O2
  Sylvite          -8.24     -7.34    0.90  KCl

**For a gas, SI = log10(fugacity). Fugacity = pressure * phi / 1 atm.
  For ideal gases, phi = 1.

Initial solution 4.	

-----------------------------Solution composition------------------------------

	Elements           Molality       Moles

	C(4)              5.101e-03   5.101e-03
	Ca                4.095e-03   4.095e-03
	Cl                9.880e-05   9.880e-05
	F                 5.268e-05   5.268e-05
	K                 3.583e-04   3.583e-04
	Mg                1.037e-03   1.037e-03
	Na                1.611e-04   1.611e-04
	S(6)              2.948e-03   2.948e-03

----------------------------Description of solution----------------------------

                                       pH  =   8.060    
                                       pe  =   4.000    
      Specific Conductance (µS/cm,  21°C)  = 855
                          Density (g/cm³)  =   0.99882
                               Volume (L)  =   1.00199
                        Activity of water  =   1.000
                 Ionic strength (mol/kgw)  =   1.592e-02
                       Mass of water (kg)  =   1.000e+00
                 Total alkalinity (eq/kg)  =   5.124e-03
                       Total CO2 (mol/kg)  =   5.101e-03
                         Temperature (°C)  =  20.50
                  Electrical balance (eq)  =  -3.882e-04
 Percent error, 100*(Cat-|An|)/(Cat+|An|)  =  -2.07
                               Iterations  =   7 (28 overall)
                                  Total H  = 1.110173e+02
                                  Total O  = 5.553323e+01

----------------------------Distribution of species----------------------------

                                               Log       Log       Log    mole V
   Species          Molality    Activity  Molality  Activity     Gamma   cm³/mol

   OH-             9.300e-07   8.179e-07    -6.032    -6.087    -0.056     -4.20
   H+              9.695e-09   8.710e-09    -8.013    -8.060    -0.047      0.00
   H2O             5.551e+01   9.998e-01     1.744    -0.000     0.000     18.05
C(4)          5.101e-03
   HCO3-           4.756e-03   4.217e-03    -2.323    -2.375    -0.052     24.44
   CaHCO3+         1.181e-04   1.050e-04    -3.928    -3.979    -0.051      9.56
   CO2             8.752e-05   8.784e-05    -4.058    -4.056     0.002     34.21
   CaCO3           6.686e-05   6.711e-05    -4.175    -4.173     0.002    -14.61
   CO3-2           3.336e-05   2.063e-05    -4.477    -4.686    -0.209     -5.33
   MgHCO3+         2.894e-05   2.551e-05    -4.538    -4.593    -0.055      5.41
   MgCO3           9.632e-06   9.668e-06    -5.016    -5.015     0.002    -17.08
   NaHCO3          3.422e-07   3.435e-07    -6.466    -6.464     0.002      1.80
   NaCO3-          4.878e-08   4.305e-08    -7.312    -7.366    -0.054     -1.33
   (CO2)2          1.212e-10   1.216e-10    -9.917    -9.915     0.002     68.42
Ca            4.095e-03
   Ca+2            3.405e-03   2.104e-03    -2.468    -2.677    -0.209    -17.92
   CaSO4           5.050e-04   5.068e-04    -3.297    -3.295     0.002      7.32
   CaHCO3+         1.181e-04   1.050e-04    -3.928    -3.979    -0.051      9.56
   CaCO3           6.686e-05   6.711e-05    -4.175    -4.173     0.002    -14.61
   CaOH+           4.542e-08   4.008e-08    -7.343    -7.397    -0.054     (0)  
   CaHSO4+         3.090e-11   2.727e-11   -10.510   -10.564    -0.054     (0)  
Cl            9.880e-05
   Cl-             9.880e-05   8.700e-05    -4.005    -4.060    -0.055     18.01
F             5.268e-05
   F-              5.105e-05   4.489e-05    -4.292    -4.348    -0.056     -1.29
   MgF+            1.627e-06   1.437e-06    -5.789    -5.842    -0.054    -10.50
   NaF             3.633e-09   3.646e-09    -8.440    -8.438     0.002      7.08
   HF              5.392e-10   5.412e-10    -9.268    -9.267     0.002     12.28
   HF2-            1.018e-13   8.979e-14   -12.992   -13.047    -0.054     21.92
H(0)          1.120e-27
   H2              5.600e-28   5.620e-28   -27.252   -27.250     0.002     28.61
K             3.583e-04
   K+              3.551e-04   3.125e-04    -3.450    -3.505    -0.056      8.93
   KSO4-           3.205e-06   2.842e-06    -5.494    -5.546    -0.052     34.06
Mg            1.037e-03
   Mg+2            8.438e-04   5.264e-04    -3.074    -3.279    -0.205    -21.38
   MgSO4           1.532e-04   1.538e-04    -3.815    -3.813     0.002      5.66
   MgHCO3+         2.894e-05   2.551e-05    -4.538    -4.593    -0.055      5.41
   MgCO3           9.632e-06   9.668e-06    -5.016    -5.015     0.002    -17.08
   MgF+            1.627e-06   1.437e-06    -5.789    -5.842    -0.054    -10.50
   MgOH+           1.631e-07   1.452e-07    -6.788    -6.838    -0.050     (0)  
Na            1.611e-04
   Na+             1.596e-04   1.411e-04    -3.797    -3.850    -0.053     -1.59
   NaSO4-          1.086e-06   9.633e-07    -5.964    -6.016    -0.052     14.67
   NaHCO3          3.422e-07   3.435e-07    -6.466    -6.464     0.002      1.80
   NaCO3-          4.878e-08   4.305e-08    -7.312    -7.366    -0.054     -1.33
   NaF             3.633e-09   3.646e-09    -8.440    -8.438     0.002      7.08
   NaOH            1.150e-20   1.154e-20   -19.939   -19.938     0.002     (0)  
O(0)          8.815e-40
   O2              4.407e-40   4.424e-40   -39.356   -39.354     0.002     30.03
S(6)          2.948e-03
   SO4-2           2.286e-03   1.402e-03    -2.641    -2.853    -0.212     14.22
   CaSO4           5.050e-04   5.068e-04    -3.297    -3.295     0.002      7.32
   MgSO4           1.532e-04   1.538e-04    -3.815    -3.813     0.002      5.66
   KSO4-           3.205e-06   2.842e-06    -5.494    -5.546    -0.052     34.06
   NaSO4-          1.086e-06   9.633e-07    -5.964    -6.016    -0.052     14.67
   HSO4-           1.222e-09   1.078e-09    -8.913    -8.967    -0.054     40.03
   CaHSO4+         3.090e-11   2.727e-11   -10.510   -10.564    -0.054     (0)  

------------------------------Saturation indices-------------------------------

  Phase               SI** log IAP   log K(293 K,   1 atm)

  Anhydrite        -1.30     -5.53   -4.23  CaSO4
  Aragonite         0.95     -7.36   -8.31  CaCO3
  Calcite           1.09     -7.36   -8.46  CaCO3
  CO2(g)           -2.64     -4.06   -1.41  CO2
  Dolomite          1.66    -15.33  -16.98  CaMg(CO3)2
  Fluorite         -0.72    -11.37  -10.65  CaF2
  Gypsum           -0.95     -5.53   -4.58  CaSO4:2H2O
  H2(g)           -24.16    -27.25   -3.09  H2
  H2O(g)           -1.62     -0.00    1.62  H2O
  Halite           -9.48     -7.91    1.57  NaCl
  O2(g)           -36.50    -39.35   -2.86  O2
  Sylvite          -8.44     -7.57    0.88  KCl

**For a gas, SI = log10(fugacity). Fugacity = pressure * phi / 1 atm.
  For ideal gases, phi = 1.

------------------
End of simulation.
------------------

------------------------------------
Reading input data for simulation 2.
------------------------------------

	USE solution 1
	EQUILIBRIUM_PHASES 1
	CO2(g) -2.642 10
	END
-----------------------------------------
Beginning of batch-reaction calculations.
-----------------------------------------

Reaction step 1.

Using solution 1.	
Using pure phase assemblage 1.	

-------------------------------Phase assemblage--------------------------------

                                                      Moles in assemblage
Phase               SI  log IAP  log K(T, P)   Initial       Final       Delta

CO2(g)           -2.64    -4.10     -1.46    1.000e+01   1.000e+01   4.356e-04

-----------------------------Solution composition------------------------------

	Elements           Molality       Moles

	C                 4.616e-03   4.616e-03
	Ca                4.120e-03   4.120e-03
	Cl                9.316e-05   9.316e-05
	F                 5.268e-05   5.268e-05
	K                 3.634e-04   3.634e-04
	Mg                1.046e-03   1.046e-03
	Na                2.220e-04   2.220e-04
	S                 2.948e-03   2.948e-03

----------------------------Description of solution----------------------------

                                       pH  =   8.038      Charge balance
                                       pe  =   9.756      Adjusted to redox equilibrium
      Specific Conductance (µS/cm,  24°C)  = 915
                          Density (g/cm³)  =   0.99792
                               Volume (L)  =   1.00286
                        Activity of water  =   1.000
                 Ionic strength (mol/kgw)  =   1.569e-02
                       Mass of water (kg)  =   1.000e+00
                 Total alkalinity (eq/kg)  =   4.646e-03
                       Total CO2 (mol/kg)  =   4.616e-03
                         Temperature (°C)  =  24.30
                  Electrical balance (eq)  =   2.281e-04
 Percent error, 100*(Cat-|An|)/(Cat+|An|)  =   1.25
                               Iterations  =   9
                                  Total H  = 1.110170e+02
                                  Total O  = 5.553187e+01

----------------------------Distribution of species----------------------------

                                               Log       Log       Log    mole V
   Species          Molality    Activity  Molality  Activity     Gamma   cm³/mol

   OH-             1.190e-06   1.046e-06    -5.925    -5.980    -0.056     -4.03
   H+              1.020e-08   9.167e-09    -7.991    -8.038    -0.047      0.00
   H2O             5.551e+01   9.998e-01     1.744    -0.000     0.000     18.07
C(-4)         0.000e+00
   CH4             0.000e+00   0.000e+00  -121.971  -121.969     0.002     35.40
C(4)          4.616e-03
   HCO3-           4.289e-03   3.803e-03    -2.368    -2.420    -0.052     24.75
   CaHCO3+         1.142e-04   1.015e-04    -3.942    -3.994    -0.051      9.71
   CO2             7.880e-05   7.908e-05    -4.103    -4.102     0.002     34.40
   CaCO3           6.695e-05   6.720e-05    -4.174    -4.173     0.002    -14.60
   CO3-2           3.103e-05   1.918e-05    -4.508    -4.717    -0.209     -4.97
   MgHCO3+         2.640e-05   2.327e-05    -4.578    -4.633    -0.055      5.53
   MgCO3           9.464e-06   9.498e-06    -5.024    -5.022     0.002    -17.09
   NaHCO3          4.162e-07   4.177e-07    -6.381    -6.379     0.002      1.80
   NaCO3-          7.601e-08   6.708e-08    -7.119    -7.173    -0.054     -0.94
   (CO2)2          1.118e-10   1.122e-10    -9.952    -9.950     0.002     68.80
Ca            4.120e-03
   Ca+2            3.422e-03   2.115e-03    -2.466    -2.675    -0.209    -17.87
   CaSO4           5.166e-04   5.185e-04    -3.287    -3.285     0.002      7.47
   CaHCO3+         1.142e-04   1.015e-04    -3.942    -3.994    -0.051      9.71
   CaCO3           6.695e-05   6.720e-05    -4.174    -4.173     0.002    -14.60
   CaOH+           4.337e-08   3.827e-08    -7.363    -7.417    -0.054     (0)  
   CaHSO4+         3.505e-11   3.093e-11   -10.455   -10.510    -0.054     (0)  
Cl            9.316e-05
   Cl-             9.316e-05   8.203e-05    -4.031    -4.086    -0.055     18.14
F             5.268e-05
   F-              5.094e-05   4.480e-05    -4.293    -4.349    -0.056     -1.23
   MgF+            1.735e-06   1.533e-06    -5.761    -5.814    -0.054    -10.50
   NaF             4.998e-09   5.016e-09    -8.301    -8.300     0.002      7.24
   HF              6.060e-10   6.082e-10    -9.218    -9.216     0.002     12.47
   HF2-            1.178e-13   1.040e-13   -12.929   -12.983    -0.054     22.12
H(0)          3.666e-39
   H2              1.833e-39   1.840e-39   -38.737   -38.735     0.002     28.61
K             3.634e-04
   K+              3.600e-04   3.168e-04    -3.444    -3.499    -0.056      9.07
   KSO4-           3.437e-06   3.048e-06    -5.464    -5.516    -0.052     34.18
Mg            1.046e-03
   Mg+2            8.410e-04   5.245e-04    -3.075    -3.280    -0.205    -21.52
   MgSO4           1.668e-04   1.674e-04    -3.778    -3.776     0.002      5.81
   MgHCO3+         2.640e-05   2.327e-05    -4.578    -4.633    -0.055      5.53
   MgCO3           9.464e-06   9.498e-06    -5.024    -5.022     0.002    -17.09
   MgF+            1.735e-06   1.533e-06    -5.761    -5.814    -0.054    -10.50
   MgOH+           2.189e-07   1.950e-07    -6.660    -6.710    -0.050     (0)  
Na            2.220e-04
   Na+             2.200e-04   1.946e-04    -3.658    -3.711    -0.053     -1.38
   NaSO4-          1.518e-06   1.346e-06    -5.819    -5.871    -0.052     14.57
   NaHCO3          4.162e-07   4.177e-07    -6.381    -6.379     0.002      1.80
   NaCO3-          7.601e-08   6.708e-08    -7.119    -7.173    -0.054     -0.94
   NaF             4.998e-09   5.016e-09    -8.301    -8.300     0.002      7.24
   NaOH            2.029e-20   2.036e-20   -19.693   -19.691     0.002     (0)  
O(0)          1.457e-15
   O2              7.284e-16   7.310e-16   -15.138   -15.136     0.002     30.35
S(-2)         0.000e+00
   HS-             0.000e+00   0.000e+00  -119.439  -119.495    -0.056     20.66
   H2S             0.000e+00   0.000e+00  -120.584  -120.582     0.002     37.16
   S-2             0.000e+00   0.000e+00  -124.185  -124.396    -0.212     (0)  
S(6)          2.948e-03
   SO4-2           2.260e-03   1.386e-03    -2.646    -2.858    -0.212     14.77
   CaSO4           5.166e-04   5.185e-04    -3.287    -3.285     0.002      7.47
   MgSO4           1.668e-04   1.674e-04    -3.778    -3.776     0.002      5.81
   KSO4-           3.437e-06   3.048e-06    -5.464    -5.516    -0.052     34.18
   NaSO4-          1.518e-06   1.346e-06    -5.819    -5.871    -0.052     14.57
   HSO4-           1.379e-09   1.217e-09    -8.861    -8.915    -0.054     40.32
   CaHSO4+         3.505e-11   3.093e-11   -10.455   -10.510    -0.054     (0)  

------------------------------Saturation indices-------------------------------

  Phase               SI** log IAP   log K(297 K,   1 atm)

  Anhydrite        -1.26     -5.53   -4.27  CaSO4
  Aragonite         0.94     -7.39   -8.33  CaCO3
  Calcite           1.08     -7.39   -8.48  CaCO3
  CH4(g)         -119.17   -121.97   -2.80  CH4
  CO2(g)           -2.64     -4.10   -1.46  CO2	 Pressure   0.0 atm, phi 1.000
  Dolomite          1.68    -15.39  -17.07  CaMg(CO3)2
  Fluorite         -0.76    -11.37  -10.61  CaF2
  Gypsum           -0.95     -5.53   -4.58  CaSO4:2H2O
  H2(g)           -35.64    -38.74   -3.10  H2
  H2O(g)           -1.52     -0.00    1.52  H2O
  H2S(g)         -119.54   -127.53   -7.99  H2S
  Halite           -9.37     -7.80    1.57  NaCl
  O2(g)           -12.25    -15.14   -2.89  O2
  Sulfur          -89.89    -84.99    4.90  S
  Sylvite          -8.48     -7.59    0.90  KCl

**For a gas, SI = log10(fugacity). Fugacity = pressure * phi / 1 atm.
  For ideal gases, phi = 1.

------------------
End of simulation.
------------------

------------------------------------
Reading input data for simulation 3.
------------------------------------

	USE solution 1
	EQUILIBRIUM_PHASES 2
	CO2(g) -3.38 10
	Calcite 0 0 
	END
-----------------------------------------
Beginning of batch-reaction calculations.
-----------------------------------------

Reaction step 1.

Using solution 1.	
Using pure phase assemblage 2.	

-------------------------------Phase assemblage--------------------------------

                                                      Moles in assemblage
Phase               SI  log IAP  log K(T, P)   Initial       Final       Delta

CO2(g)           -3.38    -4.84     -1.46    1.000e+01   1.000e+01   2.363e-03
Calcite           0.00    -8.48     -8.48    0.000e+00   1.960e-03   1.960e-03

-----------------------------Solution composition------------------------------

	Elements           Molality       Moles

	C                 7.282e-04   7.282e-04
	Ca                2.160e-03   2.160e-03
	Cl                9.315e-05   9.316e-05
	F                 5.268e-05   5.268e-05
	K                 3.634e-04   3.634e-04
	Mg                1.046e-03   1.046e-03
	Na                2.220e-04   2.220e-04
	S                 2.948e-03   2.948e-03

----------------------------Description of solution----------------------------

                                       pH  =   7.988      Charge balance
                                       pe  =   9.805      Adjusted to redox equilibrium
      Specific Conductance (µS/cm,  24°C)  = 646
                          Density (g/cm³)  =   0.99767
                               Volume (L)  =   1.00283
                        Activity of water  =   1.000
                 Ionic strength (mol/kgw)  =   1.083e-02
                       Mass of water (kg)  =   1.000e+00
                 Total alkalinity (eq/kg)  =   7.263e-04
                       Total CO2 (mol/kg)  =   7.282e-04
                         Temperature (°C)  =  24.30
                  Electrical balance (eq)  =   2.281e-04
 Percent error, 100*(Cat-|An|)/(Cat+|An|)  =   1.98
                               Iterations  =  10
                                  Total H  = 1.110170e+02
                                  Total O  = 5.552213e+01

----------------------------Distribution of species----------------------------

                                               Log       Log       Log    mole V
   Species          Molality    Activity  Molality  Activity     Gamma   cm³/mol

   OH-             1.041e-06   9.336e-07    -5.982    -6.030    -0.047     -4.06
   H+              1.128e-08   1.027e-08    -7.948    -7.988    -0.041      0.00
   H2O             5.551e+01   9.999e-01     1.744    -0.000     0.000     18.07
C(-4)         0.000e+00
   CH4             0.000e+00   0.000e+00  -122.705  -122.704     0.001     35.40
C(4)          7.282e-04
   HCO3-           6.877e-04   6.203e-04    -3.163    -3.207    -0.045     24.72
   CO2             1.442e-05   1.446e-05    -4.841    -4.840     0.001     34.40
   CaHCO3+         1.037e-05   9.375e-06    -4.984    -5.028    -0.044      9.70
   CaCO3           5.524e-06   5.538e-06    -5.258    -5.257     0.001    -14.60
   MgHCO3+         4.483e-06   4.027e-06    -5.348    -5.395    -0.047      5.51
   CO3-2           4.215e-06   2.791e-06    -5.375    -5.554    -0.179     -5.05
   MgCO3           1.463e-06   1.466e-06    -5.835    -5.834     0.001    -17.09
   NaHCO3          6.925e-08   6.942e-08    -7.160    -7.158     0.001      1.80
   NaCO3-          1.107e-08   9.945e-09    -7.956    -8.002    -0.046     -0.98
   (CO2)2          3.739e-12   3.749e-12   -11.427   -11.426     0.001     68.80
Ca            2.160e-03
   Ca+2            1.809e-03   1.197e-03    -2.742    -2.922    -0.179    -17.92
   CaSO4           3.346e-04   3.355e-04    -3.475    -3.474     0.001      7.47
   CaHCO3+         1.037e-05   9.375e-06    -4.984    -5.028    -0.044      9.70
   CaCO3           5.524e-06   5.538e-06    -5.258    -5.257     0.001    -14.60
   CaOH+           2.152e-08   1.934e-08    -7.667    -7.714    -0.046     (0)  
   CaHSO4+         2.496e-11   2.243e-11   -10.603   -10.649    -0.046     (0)  
Cl            9.315e-05
   Cl-             9.315e-05   8.360e-05    -4.031    -4.078    -0.047     18.12
F             5.268e-05
   F-              5.083e-05   4.558e-05    -4.294    -4.341    -0.047     -1.25
   MgF+            1.839e-06   1.655e-06    -5.735    -5.781    -0.046    -10.52
   NaF             5.186e-09   5.199e-09    -8.285    -8.284     0.001      7.24
   HF              6.918e-10   6.936e-10    -9.160    -9.159     0.001     12.47
   HF2-            1.342e-13   1.206e-13   -12.872   -12.919    -0.046     22.10
H(0)          3.678e-39
   H2              1.839e-39   1.844e-39   -38.735   -38.734     0.001     28.61
K             3.634e-04
   K+              3.595e-04   3.225e-04    -3.444    -3.491    -0.047      9.05
   KSO4-           3.930e-06   3.545e-06    -5.406    -5.450    -0.045     34.16
Mg            1.046e-03
   Mg+2            8.352e-04   5.565e-04    -3.078    -3.255    -0.176    -21.58
   MgSO4           2.024e-04   2.029e-04    -3.694    -3.693     0.001      5.81
   MgHCO3+         4.483e-06   4.027e-06    -5.348    -5.395    -0.047      5.51
   MgF+            1.839e-06   1.655e-06    -5.735    -5.781    -0.046    -10.52
   MgCO3           1.463e-06   1.466e-06    -5.835    -5.834     0.001    -17.09
   MgOH+           2.039e-07   1.846e-07    -6.690    -6.734    -0.043     (0)  
Na            2.220e-04
   Na+             2.202e-04   1.982e-04    -3.657    -3.703    -0.046     -1.41
   NaSO4-          1.736e-06   1.566e-06    -5.760    -5.805    -0.045     14.38
   NaHCO3          6.925e-08   6.942e-08    -7.160    -7.158     0.001      1.80
   NaCO3-          1.107e-08   9.945e-09    -7.956    -8.002    -0.046     -0.98
   NaF             5.186e-09   5.199e-09    -8.285    -8.284     0.001      7.24
   NaOH            1.846e-20   1.851e-20   -19.734   -19.733     0.001     (0)  
O(0)          1.452e-15
   O2              7.261e-16   7.279e-16   -15.139   -15.138     0.001     30.35
S(-2)         0.000e+00
   HS-             0.000e+00   0.000e+00  -119.337  -119.384    -0.047     20.64
   H2S             0.000e+00   0.000e+00  -120.422  -120.421     0.001     37.16
   S-2             0.000e+00   0.000e+00  -124.153  -124.335    -0.181     (0)  
S(6)          2.948e-03
   SO4-2           2.406e-03   1.584e-03    -2.619    -2.800    -0.182     14.69
   CaSO4           3.346e-04   3.355e-04    -3.475    -3.474     0.001      7.47
   MgSO4           2.024e-04   2.029e-04    -3.694    -3.693     0.001      5.81
   KSO4-           3.930e-06   3.545e-06    -5.406    -5.450    -0.045     34.16
   NaSO4-          1.736e-06   1.566e-06    -5.760    -5.805    -0.045     14.38
   HSO4-           1.734e-09   1.558e-09    -8.761    -8.807    -0.046     40.30
   CaHSO4+         2.496e-11   2.243e-11   -10.603   -10.649    -0.046     (0)  

------------------------------Saturation indices-------------------------------

  Phase               SI** log IAP   log K(297 K,   1 atm)

  Anhydrite        -1.45     -5.72   -4.27  CaSO4
  Aragonite        -0.14     -8.48   -8.33  CaCO3
  Calcite           0.00     -8.48   -8.48  CaCO3
  CH4(g)         -119.91   -122.70   -2.80  CH4
  CO2(g)           -3.38     -4.84   -1.46  CO2	 Pressure   0.0 atm, phi 1.000
  Dolomite         -0.21    -17.28  -17.07  CaMg(CO3)2
  Fluorite         -1.00    -11.60  -10.61  CaF2
  Gypsum           -1.14     -5.72   -4.58  CaSO4:2H2O
  H2(g)           -35.63    -38.73   -3.10  H2
  H2O(g)           -1.52     -0.00    1.52  H2O
  H2S(g)         -119.38   -127.37   -7.99  H2S
  Halite           -9.35     -7.78    1.57  NaCl
  O2(g)           -12.25    -15.14   -2.89  O2
  Sulfur          -89.73    -84.83    4.90  S
  Sylvite          -8.47     -7.57    0.90  KCl

**For a gas, SI = log10(fugacity). Fugacity = pressure * phi / 1 atm.
  For ideal gases, phi = 1.

------------------
End of simulation.
------------------

------------------------------------
Reading input data for simulation 4.
------------------------------------

-------------------------------
End of Run after 0.174 Seconds.
-------------------------------

