   Input file: Z:\0ownCloud\Colleges2023\AESB1120-15_Introduction to Chemistry and Chemical Thermodynamics\2023\Practical_Week_2.1\Answer\Phrqc3.pqi
  Output file: Z:\0ownCloud\Colleges2023\AESB1120-15_Introduction to Chemistry and Chemical Thermodynamics\2023\Practical_Week_2.1\Answer\Phrqc3.pqo
Database file: C:\Program Files (x86)\USGS\Phreeqc Interactive 3.7.3-15968\database\phreeqc.dat

------------------
Reading data base.
------------------

	SOLUTION_MASTER_SPECIES
	SOLUTION_SPECIES
	PHASES
	EXCHANGE_MASTER_SPECIES
	EXCHANGE_SPECIES
	SURFACE_MASTER_SPECIES
	SURFACE_SPECIES
	RATES
	END
------------------------------------
Reading input data for simulation 1.
------------------------------------

	DATABASE C:\Program Files (x86)\USGS\Phreeqc Interactive 3.7.3-15968\database\phreeqc.dat
	SOLUTION_SPREAD
	units	mg/l
	 temperature	  EC	   pH	    C(4)	  Ca	   Mg	  Na	   K	   F	  Cl	   S(6)
	           	    	     	 as HCO3	    	     	    	    	    	    	 as SO4
	          20	 590	 6.98	     234	 102	   17	 2.5	 6.8	 0.5	 3.3	    150
	          20	 600	 6.91	     239	 105	 17.1	 2.9	 7.3	 0.6	 3.9	    159
	          20	 600	 6.89	     240	 106	 16.6	 2.4	 6.9	 0.6	 3.8	    159
	        19.5	 600	 7.01	     237	 103	 17.2	   3	 7.1	 0.6	 3.6	    158
	          17	 595	 7.19	     237	 104	 16.6	 2.4	 6.6	 0.6	 3.8	    158
	          17	 600	 7.41	     235	 104	 16.9	 2.5	 6.5	 0.6	 3.7	    160
	        16.5	 520	 7.83	     234	 102	 16.5	 2.8	 6.9	 0.6	 3.8	    162
	          13	 510	 7.98	     224	 100	 16.3	 2.7	 6.6	 0.6	 3.7	    162
	        13.5	 488	 7.92	     220	  99	 16.2	 2.5	 6.7	 0.6	 3.8	    162
	        13.5	 461	 7.98	     209	  97	 16.7	 2.3	 6.4	 0.6	 3.9	    164
	          11	 393	 8.08	     183	  83	   15	 2.5	 5.8	 0.6	 4.3	    142
	SELECTED_OUTPUT 1
	    file                 myoutput.csv
	    molalities           Ca+2
	    gases                CO2(g)
	    equilibrium_phases Calcite CO2(g)
WARNING: Could not find element in database, EC.
	Concentration is set to zero.
WARNING: Could not find element in database, EC.
	Concentration is set to zero.
WARNING: Could not find element in database, EC.
	Concentration is set to zero.
WARNING: Could not find element in database, EC.
	Concentration is set to zero.
WARNING: Could not find element in database, EC.
	Concentration is set to zero.
WARNING: Could not find element in database, EC.
	Concentration is set to zero.
WARNING: Could not find element in database, EC.
	Concentration is set to zero.
WARNING: Could not find element in database, EC.
	Concentration is set to zero.
WARNING: Could not find element in database, EC.
	Concentration is set to zero.
WARNING: Could not find element in database, EC.
	Concentration is set to zero.
WARNING: Could not find element in database, EC.
	Concentration is set to zero.
-------------------------------------------
Beginning of initial solution calculations.
-------------------------------------------

Initial solution 1.	

-----------------------------Solution composition------------------------------

	Elements           Molality       Moles

	C(4)              3.837e-03   3.837e-03
	Ca                2.546e-03   2.546e-03
	Cl                9.313e-05   9.313e-05
	F                 2.633e-05   2.633e-05
	K                 1.740e-04   1.740e-04
	Mg                6.996e-04   6.996e-04
	Na                1.088e-04   1.088e-04
	S(6)              1.562e-03   1.562e-03

----------------------------Description of solution----------------------------

                                       pH  =   6.980    
                                       pe  =   4.000    
      Specific Conductance (µS/cm,  20°C)  = 540
                          Density (g/cm³)  =   0.99864
                               Volume (L)  =   1.00187
                        Activity of water  =   1.000
                 Ionic strength (mol/kgw)  =   1.007e-02
                       Mass of water (kg)  =   1.000e+00
                 Total alkalinity (eq/kg)  =   3.143e-03
                       Total CO2 (mol/kg)  =   3.837e-03
                         Temperature (°C)  =  20.00
                  Electrical balance (eq)  =   3.875e-04
 Percent error, 100*(Cat-|An|)/(Cat+|An|)  =   3.27
                               Iterations  =   8
                                  Total H  = 1.110156e+02
                                  Total O  = 5.552328e+01

----------------------------Distribution of species----------------------------

                                               Log       Log       Log    mole V
   Species          Molality    Activity  Molality  Activity     Gamma    cm³/mol

   H+              1.146e-07   1.047e-07    -6.941    -6.980    -0.039      0.00
   OH-             7.259e-08   6.537e-08    -7.139    -7.185    -0.046     -4.26
   H2O             5.551e+01   9.999e-01     1.744    -0.000     0.000     18.05
C(4)          3.837e-03
   HCO3-           3.064e-03   2.775e-03    -2.514    -2.557    -0.043     24.36
   CO2             6.985e-04   7.001e-04    -3.156    -3.155     0.001     34.19
   CaHCO3+         5.465e-05   4.956e-05    -4.262    -4.305    -0.042      9.52
   MgHCO3+         1.461e-05   1.317e-05    -4.835    -4.880    -0.045      5.38
   CaCO3           2.603e-06   2.609e-06    -5.585    -5.584     0.001    -14.62
   CO3-2           1.660e-06   1.116e-06    -5.780    -5.952    -0.172     -5.48
   MgCO3           4.072e-07   4.081e-07    -6.390    -6.389     0.001    -17.08
   NaHCO3          1.567e-07   1.570e-07    -6.805    -6.804     0.001      1.80
   (CO2)2          7.574e-09   7.591e-09    -8.121    -8.120     0.001     68.37
   NaCO3-          1.742e-09   1.572e-09    -8.759    -8.803    -0.045     -1.44
Ca            2.546e-03
   Ca+2            2.268e-03   1.524e-03    -2.644    -2.817    -0.173    -18.00
   CaSO4           2.207e-04   2.213e-04    -3.656    -3.655     0.001      7.30
   CaHCO3+         5.465e-05   4.956e-05    -4.262    -4.305    -0.042      9.52
   CaCO3           2.603e-06   2.609e-06    -5.585    -5.584     0.001    -14.62
   CaOH+           2.676e-09   2.415e-09    -8.572    -8.617    -0.045     (0)  
   CaHSO4+         1.576e-10   1.422e-10    -9.803    -9.847    -0.045     (0)  
Cl            9.313e-05
   Cl-             9.313e-05   8.393e-05    -4.031    -4.076    -0.045     17.97
F             2.633e-05
   F-              2.569e-05   2.313e-05    -4.590    -4.636    -0.046     -1.32
   MgF+            6.386e-07   5.768e-07    -6.195    -6.239    -0.044    -10.52
   HF              3.316e-09   3.323e-09    -8.479    -8.478     0.001     12.26
   NaF             1.299e-09   1.302e-09    -8.886    -8.885     0.001      7.06
   HF2-            3.134e-13   2.829e-13   -12.504   -12.548    -0.045     21.87
H(0)          1.629e-25
   H2              8.147e-26   8.166e-26   -25.089   -25.088     0.001     28.61
K             1.740e-04
   K+              1.731e-04   1.559e-04    -3.762    -3.807    -0.045      8.89
   KSO4-           9.388e-07   8.501e-07    -6.027    -6.071    -0.043     34.02
Mg            6.996e-04
   Mg+2            6.119e-04   4.138e-04    -3.213    -3.383    -0.170    -21.43
   MgSO4           7.200e-05   7.217e-05    -4.143    -4.142     0.001      5.63
   MgHCO3+         1.461e-05   1.317e-05    -4.835    -4.880    -0.045      5.38
   MgF+            6.386e-07   5.768e-07    -6.195    -6.239    -0.044    -10.52
   MgCO3           4.072e-07   4.081e-07    -6.390    -6.389     0.001    -17.08
   MgOH+           9.980e-09   9.064e-09    -8.001    -8.043    -0.042     (0)  
Na            1.088e-04
   Na+             1.082e-04   9.779e-05    -3.966    -4.010    -0.044     -1.66
   NaSO4-          4.444e-07   4.025e-07    -6.352    -6.395    -0.043     14.45
   NaHCO3          1.567e-07   1.570e-07    -6.805    -6.804     0.001      1.80
   NaCO3-          1.742e-09   1.572e-09    -8.759    -8.803    -0.045     -1.44
   NaF             1.299e-09   1.302e-09    -8.886    -8.885     0.001      7.06
   NaOH            6.377e-22   6.392e-22   -21.195   -21.194     0.001     (0)  
O(0)          0.000e+00
   O2              0.000e+00   0.000e+00   -43.846   -43.845     0.001     29.98
S(6)          1.562e-03
   SO4-2           1.268e-03   8.481e-04    -2.897    -3.072    -0.175     14.04
   CaSO4           2.207e-04   2.213e-04    -3.656    -3.655     0.001      7.30
   MgSO4           7.200e-05   7.217e-05    -4.143    -4.142     0.001      5.63
   KSO4-           9.388e-07   8.501e-07    -6.027    -6.071    -0.043     34.02
   NaSO4-          4.444e-07   4.025e-07    -6.352    -6.395    -0.043     14.45
   HSO4-           8.598e-09   7.759e-09    -8.066    -8.110    -0.045     39.97
   CaHSO4+         1.576e-10   1.422e-10    -9.803    -9.847    -0.045     (0)  

------------------------------Saturation indices-------------------------------

  Phase               SI** log IAP   log K(293 K,   1 atm)

  Anhydrite        -1.67     -5.89   -4.22  CaSO4
  Aragonite        -0.46     -8.77   -8.31  CaCO3
  Calcite          -0.32     -8.77   -8.45  CaCO3
  CO2(g)           -1.75     -3.15   -1.41  CO2
  Dolomite         -1.10    -18.10  -17.00  CaMg(CO3)2
  Fluorite         -1.43    -12.09  -10.66  CaF2
  Gypsum           -1.30     -5.89   -4.58  CaSO4:2H2O
  H2(g)           -22.00    -25.09   -3.09  H2
  H2O(g)           -1.63     -0.00    1.63  H2O
  Halite           -9.65     -8.09    1.57  NaCl
  O2(g)           -40.99    -43.85   -2.85  O2
  Sylvite          -8.76     -7.88    0.87  KCl

**For a gas, SI = log10(fugacity). Fugacity = pressure * phi / 1 atm.
  For ideal gases, phi = 1.

Initial solution 2.	

-----------------------------Solution composition------------------------------

	Elements           Molality       Moles

	C(4)              3.919e-03   3.919e-03
	Ca                2.621e-03   2.621e-03
	Cl                1.101e-04   1.101e-04
	F                 3.160e-05   3.160e-05
	K                 1.868e-04   1.868e-04
	Mg                7.037e-04   7.037e-04
	Na                1.262e-04   1.262e-04
	S(6)              1.656e-03   1.656e-03

----------------------------Description of solution----------------------------

                                       pH  =   6.910    
                                       pe  =   4.000    
      Specific Conductance (µS/cm,  20°C)  = 555
                          Density (g/cm³)  =   0.99865
                               Volume (L)  =   1.00187
                        Activity of water  =   1.000
                 Ionic strength (mol/kgw)  =   1.034e-02
                       Mass of water (kg)  =   1.000e+00
                 Total alkalinity (eq/kg)  =   3.111e-03
                       Total CO2 (mol/kg)  =   3.919e-03
                         Temperature (°C)  =  20.00
                  Electrical balance (eq)  =   3.977e-04
 Percent error, 100*(Cat-|An|)/(Cat+|An|)  =   3.28
                               Iterations  =   9 (17 overall)
                                  Total H  = 1.110155e+02
                                  Total O  = 5.552379e+01

----------------------------Distribution of species----------------------------

                                               Log       Log       Log    mole V
   Species          Molality    Activity  Molality  Activity     Gamma    cm³/mol

   H+              1.348e-07   1.230e-07    -6.870    -6.910    -0.040      0.00
   OH-             6.186e-08   5.563e-08    -7.209    -7.255    -0.046     -4.26
   H2O             5.551e+01   9.998e-01     1.744    -0.000     0.000     18.05
C(4)          3.919e-03
   HCO3-           3.034e-03   2.744e-03    -2.518    -2.562    -0.044     24.36
   CO2             8.115e-04   8.134e-04    -3.091    -3.090     0.001     34.19
   CaHCO3+         5.523e-05   5.004e-05    -4.258    -4.301    -0.043      9.52
   MgHCO3+         1.442e-05   1.299e-05    -4.841    -4.887    -0.045      5.38
   CaCO3           2.236e-06   2.242e-06    -5.650    -5.649     0.001    -14.62
   CO3-2           1.403e-06   9.393e-07    -5.853    -6.027    -0.174     -5.48
   MgCO3           3.416e-07   3.424e-07    -6.467    -6.465     0.001    -17.08
   NaHCO3          1.795e-07   1.799e-07    -6.746    -6.745     0.001      1.80
   (CO2)2          1.022e-08   1.025e-08    -7.990    -7.989     0.001     68.37
   NaCO3-          1.701e-09   1.533e-09    -8.769    -8.814    -0.045     -1.43
Ca            2.621e-03
   Ca+2            2.326e-03   1.556e-03    -2.633    -2.808    -0.175    -18.00
   CaSO4           2.373e-04   2.379e-04    -3.625    -3.624     0.001      7.30
   CaHCO3+         5.523e-05   5.004e-05    -4.258    -4.301    -0.043      9.52
   CaCO3           2.236e-06   2.242e-06    -5.650    -5.649     0.001    -14.62
   CaOH+           2.329e-09   2.099e-09    -8.633    -8.678    -0.045     (0)  
   CaHSO4+         1.992e-10   1.796e-10    -9.701    -9.746    -0.045     (0)  
Cl            1.101e-04
   Cl-             1.101e-04   9.907e-05    -3.958    -4.004    -0.046     17.97
F             3.160e-05
   F-              3.083e-05   2.773e-05    -4.511    -4.557    -0.046     -1.32
   MgF+            7.638e-07   6.891e-07    -6.117    -6.162    -0.045    -10.52
   HF              4.669e-09   4.680e-09    -8.331    -8.330     0.001     12.26
   NaF             1.803e-09   1.807e-09    -8.744    -8.743     0.001      7.06
   HF2-            5.297e-13   4.774e-13   -12.276   -12.321    -0.045     21.87
H(0)          2.249e-25
   H2              1.124e-25   1.127e-25   -24.949   -24.948     0.001     28.61
K             1.868e-04
   K+              1.857e-04   1.671e-04    -3.731    -3.777    -0.046      8.90
   KSO4-           1.061e-06   9.594e-07    -5.974    -6.018    -0.044     34.03
Mg            7.037e-04
   Mg+2            6.126e-04   4.125e-04    -3.213    -3.385    -0.172    -21.43
   MgSO4           7.557e-05   7.575e-05    -4.122    -4.121     0.001      5.63
   MgHCO3+         1.442e-05   1.299e-05    -4.841    -4.887    -0.045      5.38
   MgF+            7.638e-07   6.891e-07    -6.117    -6.162    -0.045    -10.52
   MgCO3           3.416e-07   3.424e-07    -6.467    -6.465     0.001    -17.08
   MgOH+           8.476e-09   7.690e-09    -8.072    -8.114    -0.042     (0)  
Na            1.262e-04
   Na+             1.255e-04   1.133e-04    -3.901    -3.946    -0.044     -1.66
   NaSO4-          5.427e-07   4.909e-07    -6.265    -6.309    -0.044     14.46
   NaHCO3          1.795e-07   1.799e-07    -6.746    -6.745     0.001      1.80
   NaF             1.803e-09   1.807e-09    -8.744    -8.743     0.001      7.06
   NaCO3-          1.701e-09   1.533e-09    -8.769    -8.814    -0.045     -1.43
   NaOH            6.287e-22   6.302e-22   -21.202   -21.200     0.001     (0)  
O(0)          0.000e+00
   O2              0.000e+00   0.000e+00   -44.126   -44.125     0.001     29.98
S(6)          1.656e-03
   SO4-2           1.342e-03   8.930e-04    -2.872    -3.049    -0.177     14.05
   CaSO4           2.373e-04   2.379e-04    -3.625    -3.624     0.001      7.30
   MgSO4           7.557e-05   7.575e-05    -4.122    -4.121     0.001      5.63
   KSO4-           1.061e-06   9.594e-07    -5.974    -6.018    -0.044     34.03
   NaSO4-          5.427e-07   4.909e-07    -6.265    -6.309    -0.044     14.46
   HSO4-           1.065e-08   9.599e-09    -7.973    -8.018    -0.045     39.97
   CaHSO4+         1.992e-10   1.796e-10    -9.701    -9.746    -0.045     (0)  

------------------------------Saturation indices-------------------------------

  Phase               SI** log IAP   log K(293 K,   1 atm)

  Anhydrite        -1.63     -5.86   -4.22  CaSO4
  Aragonite        -0.53     -8.84   -8.31  CaCO3
  Calcite          -0.39     -8.84   -8.45  CaCO3
  CO2(g)           -1.68     -3.09   -1.41  CO2
  Dolomite         -1.24    -18.25  -17.00  CaMg(CO3)2
  Fluorite         -1.26    -11.92  -10.66  CaF2
  Gypsum           -1.27     -5.86   -4.58  CaSO4:2H2O
  H2(g)           -21.86    -24.95   -3.09  H2
  H2O(g)           -1.63     -0.00    1.63  H2O
  Halite           -9.52     -7.95    1.57  NaCl
  O2(g)           -41.27    -44.13   -2.85  O2
  Sylvite          -8.66     -7.78    0.87  KCl

**For a gas, SI = log10(fugacity). Fugacity = pressure * phi / 1 atm.
  For ideal gases, phi = 1.

Initial solution 3.	

-----------------------------Solution composition------------------------------

	Elements           Molality       Moles

	C(4)              3.935e-03   3.935e-03
	Ca                2.646e-03   2.646e-03
	Cl                1.072e-04   1.072e-04
	F                 3.160e-05   3.160e-05
	K                 1.766e-04   1.766e-04
	Mg                6.832e-04   6.832e-04
	Na                1.045e-04   1.045e-04
	S(6)              1.656e-03   1.656e-03

----------------------------Description of solution----------------------------

                                       pH  =   6.890    
                                       pe  =   4.000    
      Specific Conductance (µS/cm,  20°C)  = 553
                          Density (g/cm³)  =   0.99865
                               Volume (L)  =   1.00187
                        Activity of water  =   1.000
                 Ionic strength (mol/kgw)  =   1.033e-02
                       Mass of water (kg)  =   1.000e+00
                 Total alkalinity (eq/kg)  =   3.094e-03
                       Total CO2 (mol/kg)  =   3.935e-03
                         Temperature (°C)  =  20.00
                  Electrical balance (eq)  =   3.948e-04
 Percent error, 100*(Cat-|An|)/(Cat+|An|)  =   3.27
                               Iterations  =   9 (26 overall)
                                  Total H  = 1.110155e+02
                                  Total O  = 5.552380e+01

----------------------------Distribution of species----------------------------

                                               Log       Log       Log    mole V
   Species          Molality    Activity  Molality  Activity     Gamma    cm³/mol

   H+              1.411e-07   1.288e-07    -6.850    -6.890    -0.040      0.00
   OH-             5.907e-08   5.313e-08    -7.229    -7.275    -0.046     -4.26
   H2O             5.551e+01   9.998e-01     1.744    -0.000     0.000     18.05
C(4)          3.935e-03
   HCO3-           3.017e-03   2.729e-03    -2.520    -2.564    -0.044     24.36
   CO2             8.451e-04   8.471e-04    -3.073    -3.072     0.001     34.19
   CaHCO3+         5.547e-05   5.026e-05    -4.256    -4.299    -0.043      9.52
   MgHCO3+         1.392e-05   1.254e-05    -4.856    -4.902    -0.045      5.38
   CaCO3           2.145e-06   2.150e-06    -5.669    -5.667     0.001    -14.62
   CO3-2           1.333e-06   8.921e-07    -5.875    -6.050    -0.174     -5.48
   MgCO3           3.150e-07   3.158e-07    -6.502    -6.501     0.001    -17.08
   NaHCO3          1.477e-07   1.481e-07    -6.831    -6.829     0.001      1.80
   (CO2)2          1.109e-08   1.111e-08    -7.955    -7.954     0.001     68.37
   NaCO3-          1.337e-09   1.205e-09    -8.874    -8.919    -0.045     -1.43
Ca            2.646e-03
   Ca+2            2.349e-03   1.572e-03    -2.629    -2.804    -0.175    -18.00
   CaSO4           2.397e-04   2.403e-04    -3.620    -3.619     0.001      7.30
   CaHCO3+         5.547e-05   5.026e-05    -4.256    -4.299    -0.043      9.52
   CaCO3           2.145e-06   2.150e-06    -5.669    -5.667     0.001    -14.62
   CaOH+           2.246e-09   2.024e-09    -8.649    -8.694    -0.045     (0)  
   CaHSO4+         2.107e-10   1.899e-10    -9.676    -9.721    -0.045     (0)  
Cl            1.072e-04
   Cl-             1.072e-04   9.654e-05    -3.970    -4.015    -0.046     17.97
F             3.160e-05
   F-              3.085e-05   2.775e-05    -4.511    -4.557    -0.046     -1.32
   MgF+            7.423e-07   6.697e-07    -6.129    -6.174    -0.045    -10.52
   HF              4.892e-09   4.904e-09    -8.310    -8.309     0.001     12.26
   NaF             1.493e-09   1.497e-09    -8.826    -8.825     0.001      7.06
   HF2-            5.555e-13   5.007e-13   -12.255   -12.300    -0.045     21.87
H(0)          2.466e-25
   H2              1.233e-25   1.236e-25   -24.909   -24.908     0.001     28.61
K             1.766e-04
   K+              1.756e-04   1.580e-04    -3.756    -3.801    -0.046      8.90
   KSO4-           1.003e-06   9.071e-07    -5.999    -6.042    -0.044     34.03
Mg            6.832e-04
   Mg+2            5.948e-04   4.006e-04    -3.226    -3.397    -0.172    -21.43
   MgSO4           7.340e-05   7.357e-05    -4.134    -4.133     0.001      5.63
   MgHCO3+         1.392e-05   1.254e-05    -4.856    -4.902    -0.045      5.38
   MgF+            7.423e-07   6.697e-07    -6.129    -6.174    -0.045    -10.52
   MgCO3           3.150e-07   3.158e-07    -6.502    -6.501     0.001    -17.08
   MgOH+           7.860e-09   7.131e-09    -8.105    -8.147    -0.042     (0)  
Na            1.045e-04
   Na+             1.039e-04   9.376e-05    -3.984    -4.028    -0.044     -1.66
   NaSO4-          4.493e-07   4.064e-07    -6.347    -6.391    -0.044     14.46
   NaHCO3          1.477e-07   1.481e-07    -6.831    -6.829     0.001      1.80
   NaF             1.493e-09   1.497e-09    -8.826    -8.825     0.001      7.06
   NaCO3-          1.337e-09   1.205e-09    -8.874    -8.919    -0.045     -1.43
   NaOH            4.970e-22   4.981e-22   -21.304   -21.303     0.001     (0)  
O(0)          0.000e+00
   O2              0.000e+00   0.000e+00   -44.206   -44.205     0.001     29.98
S(6)          1.656e-03
   SO4-2           1.341e-03   8.932e-04    -2.872    -3.049    -0.177     14.05
   CaSO4           2.397e-04   2.403e-04    -3.620    -3.619     0.001      7.30
   MgSO4           7.340e-05   7.357e-05    -4.134    -4.133     0.001      5.63
   KSO4-           1.003e-06   9.071e-07    -5.999    -6.042    -0.044     34.03
   NaSO4-          4.493e-07   4.064e-07    -6.347    -6.391    -0.044     14.46
   HSO4-           1.115e-08   1.005e-08    -7.953    -7.998    -0.045     39.97
   CaHSO4+         2.107e-10   1.899e-10    -9.676    -9.721    -0.045     (0)  

------------------------------Saturation indices-------------------------------

  Phase               SI** log IAP   log K(293 K,   1 atm)

  Anhydrite        -1.63     -5.85   -4.22  CaSO4
  Aragonite        -0.55     -8.85   -8.31  CaCO3
  Calcite          -0.41     -8.85   -8.45  CaCO3
  CO2(g)           -1.66     -3.07   -1.41  CO2
  Dolomite         -1.30    -18.30  -17.00  CaMg(CO3)2
  Fluorite         -1.26    -11.92  -10.66  CaF2
  Gypsum           -1.27     -5.85   -4.58  CaSO4:2H2O
  H2(g)           -21.82    -24.91   -3.09  H2
  H2O(g)           -1.63     -0.00    1.63  H2O
  Halite           -9.61     -8.04    1.57  NaCl
  O2(g)           -41.35    -44.21   -2.85  O2
  Sylvite          -8.69     -7.82    0.87  KCl

**For a gas, SI = log10(fugacity). Fugacity = pressure * phi / 1 atm.
  For ideal gases, phi = 1.

Initial solution 4.	

-----------------------------Solution composition------------------------------

	Elements           Molality       Moles

	C(4)              3.886e-03   3.886e-03
	Ca                2.571e-03   2.571e-03
	Cl                1.016e-04   1.016e-04
	F                 3.160e-05   3.160e-05
	K                 1.817e-04   1.817e-04
	Mg                7.078e-04   7.078e-04
	Na                1.306e-04   1.306e-04
	S(6)              1.646e-03   1.646e-03

----------------------------Description of solution----------------------------

                                       pH  =   7.010    
                                       pe  =   4.000    
      Specific Conductance (µS/cm,  20°C)  = 548
                          Density (g/cm³)  =   0.99875
                               Volume (L)  =   1.00177
                        Activity of water  =   1.000
                 Ionic strength (mol/kgw)  =   1.030e-02
                       Mass of water (kg)  =   1.000e+00
                 Total alkalinity (eq/kg)  =   3.219e-03
                       Total CO2 (mol/kg)  =   3.886e-03
                         Temperature (°C)  =  19.50
                  Electrical balance (eq)  =   2.270e-04
 Percent error, 100*(Cat-|An|)/(Cat+|An|)  =   1.87
                               Iterations  =   8 (34 overall)
                                  Total H  = 1.110156e+02
                                  Total O  = 5.552379e+01

----------------------------Distribution of species----------------------------

                                               Log       Log       Log    mole V
   Species          Molality    Activity  Molality  Activity     Gamma    cm³/mol

   H+              1.070e-07   9.772e-08    -6.971    -7.010    -0.039      0.00
   OH-             7.479e-08   6.728e-08    -7.126    -7.172    -0.046     -4.28
   H2O             5.551e+01   9.998e-01     1.744    -0.000     0.000     18.05
C(4)          3.886e-03
   HCO3-           3.138e-03   2.839e-03    -2.503    -2.547    -0.043     24.32
   CO2             6.721e-04   6.737e-04    -3.173    -3.172     0.001     34.16
   CaHCO3+         5.555e-05   5.034e-05    -4.255    -4.298    -0.043      9.50
   MgHCO3+         1.500e-05   1.352e-05    -4.824    -4.869    -0.045      5.36
   CaCO3           2.804e-06   2.811e-06    -5.552    -5.551     0.001    -14.62
   CO3-2           1.805e-06   1.210e-06    -5.743    -5.917    -0.174     -5.54
   MgCO3           4.398e-07   4.408e-07    -6.357    -6.356     0.001    -17.08
   NaHCO3          1.927e-07   1.932e-07    -6.715    -6.714     0.001      1.80
   (CO2)2          6.892e-09   6.908e-09    -8.162    -8.161     0.001     68.32
   NaCO3-          2.207e-09   1.990e-09    -8.656    -8.701    -0.045     -1.49
Ca            2.571e-03
   Ca+2            2.281e-03   1.527e-03    -2.642    -2.816    -0.174    -18.01
   CaSO4           2.316e-04   2.321e-04    -3.635    -3.634     0.001      7.28
   CaHCO3+         5.555e-05   5.034e-05    -4.255    -4.298    -0.043      9.50
   CaCO3           2.804e-06   2.811e-06    -5.552    -5.551     0.001    -14.62
   CaOH+           2.877e-09   2.594e-09    -8.541    -8.586    -0.045     (0)  
   CaHSO4+         1.534e-10   1.383e-10    -9.814    -9.859    -0.045     (0)  
Cl            1.016e-04
   Cl-             1.016e-04   9.147e-05    -3.993    -4.039    -0.046     17.95
F             3.160e-05
   F-              3.083e-05   2.774e-05    -4.511    -4.557    -0.046     -1.33
   MgF+            7.625e-07   6.880e-07    -6.118    -6.162    -0.045    -10.52
   HF              3.677e-09   3.686e-09    -8.434    -8.433     0.001     12.23
   NaF             1.866e-09   1.871e-09    -8.729    -8.728     0.001      7.04
   HF2-            4.153e-13   3.744e-13   -12.382   -12.427    -0.045     21.84
H(0)          1.426e-25
   H2              7.132e-26   7.149e-26   -25.147   -25.146     0.001     28.61
K             1.817e-04
   K+              1.807e-04   1.626e-04    -3.743    -3.789    -0.046      8.88
   KSO4-           1.020e-06   9.232e-07    -5.991    -6.035    -0.043     34.01
Mg            7.078e-04
   Mg+2            6.167e-04   4.156e-04    -3.210    -3.381    -0.171    -21.41
   MgSO4           7.498e-05   7.515e-05    -4.125    -4.124     0.001      5.61
   MgHCO3+         1.500e-05   1.352e-05    -4.824    -4.869    -0.045      5.36
   MgF+            7.625e-07   6.880e-07    -6.118    -6.162    -0.045    -10.52
   MgCO3           4.398e-07   4.408e-07    -6.357    -6.356     0.001    -17.08
   MgOH+           1.026e-08   9.308e-09    -7.989    -8.031    -0.042     (0)  
Na            1.306e-04
   Na+             1.298e-04   1.172e-04    -3.887    -3.931    -0.044     -1.69
   NaSO4-          5.585e-07   5.053e-07    -6.253    -6.296    -0.043     14.47
   NaHCO3          1.927e-07   1.932e-07    -6.715    -6.714     0.001      1.80
   NaCO3-          2.207e-09   1.990e-09    -8.656    -8.701    -0.045     -1.49
   NaF             1.866e-09   1.871e-09    -8.729    -8.728     0.001      7.04
   NaOH            7.867e-22   7.886e-22   -21.104   -21.103     0.001     (0)  
O(0)          0.000e+00
   O2              0.000e+00   0.000e+00   -43.898   -43.897     0.001     29.94
S(6)          1.646e-03
   SO4-2           1.337e-03   8.912e-04    -2.874    -3.050    -0.176     13.97
   CaSO4           2.316e-04   2.321e-04    -3.635    -3.634     0.001      7.28
   MgSO4           7.498e-05   7.515e-05    -4.125    -4.124     0.001      5.61
   KSO4-           1.020e-06   9.232e-07    -5.991    -6.035    -0.043     34.01
   NaSO4-          5.585e-07   5.053e-07    -6.253    -6.296    -0.043     14.47
   HSO4-           8.353e-09   7.530e-09    -8.078    -8.123    -0.045     39.93
   CaHSO4+         1.534e-10   1.383e-10    -9.814    -9.859    -0.045     (0)  

------------------------------Saturation indices-------------------------------

  Phase               SI** log IAP   log K(292 K,   1 atm)

  Anhydrite        -1.65     -5.87   -4.22  CaSO4
  Aragonite        -0.43     -8.73   -8.30  CaCO3
  Calcite          -0.29     -8.73   -8.44  CaCO3
  CO2(g)           -1.77     -3.17   -1.40  CO2
  Dolomite         -1.04    -18.03  -17.00  CaMg(CO3)2
  Fluorite         -1.26    -11.93  -10.67  CaF2
  Gypsum           -1.28     -5.87   -4.58  CaSO4:2H2O
  H2(g)           -22.06    -25.15   -3.09  H2
  H2O(g)           -1.65     -0.00    1.65  H2O
  Halite           -9.54     -7.97    1.57  NaCl
  O2(g)           -41.05    -43.90   -2.85  O2
  Sylvite          -8.70     -7.83    0.87  KCl

**For a gas, SI = log10(fugacity). Fugacity = pressure * phi / 1 atm.
  For ideal gases, phi = 1.

Initial solution 5.	

-----------------------------Solution composition------------------------------

	Elements           Molality       Moles

	C(4)              3.886e-03   3.886e-03
	Ca                2.596e-03   2.596e-03
	Cl                1.072e-04   1.072e-04
	F                 3.160e-05   3.160e-05
	K                 1.689e-04   1.689e-04
	Mg                6.832e-04   6.832e-04
	Na                1.044e-04   1.044e-04
	S(6)              1.646e-03   1.646e-03

----------------------------Description of solution----------------------------

                                       pH  =   7.190    
                                       pe  =   4.000    
      Specific Conductance (µS/cm,  17°C)  = 522
                          Density (g/cm³)  =   0.99923
                               Volume (L)  =   1.00129
                        Activity of water  =   1.000
                 Ionic strength (mol/kgw)  =   1.040e-02
                       Mass of water (kg)  =   1.000e+00
                 Total alkalinity (eq/kg)  =   3.404e-03
                       Total CO2 (mol/kg)  =   3.886e-03
                         Temperature (°C)  =  17.00
                  Electrical balance (eq)  =  -2.405e-06
 Percent error, 100*(Cat-|An|)/(Cat+|An|)  =  -0.02
                               Iterations  =   7 (41 overall)
                                  Total H  = 1.110158e+02
                                  Total O  = 5.552397e+01

----------------------------Distribution of species----------------------------

                                               Log       Log       Log    mole V
   Species          Molality    Activity  Molality  Activity     Gamma    cm³/mol

   OH-             9.230e-08   8.303e-08    -7.035    -7.081    -0.046     -4.43
   H+              7.071e-08   6.457e-08    -7.151    -7.190    -0.039      0.00
   H2O             5.551e+01   9.998e-01     1.744    -0.000     0.000     18.04
C(4)          3.886e-03
   HCO3-           3.318e-03   3.001e-03    -2.479    -2.523    -0.043     24.07
   CO2             4.892e-04   4.904e-04    -3.310    -3.309     0.001     34.03
   CaHCO3+         5.640e-05   5.111e-05    -4.249    -4.291    -0.043      9.38
   MgHCO3+         1.527e-05   1.376e-05    -4.816    -4.862    -0.045      5.27
   CaCO3           4.116e-06   4.126e-06    -5.386    -5.384     0.001    -14.63
   CO3-2           2.721e-06   1.823e-06    -5.565    -5.739    -0.174     -5.86
   MgCO3           6.187e-07   6.202e-07    -6.209    -6.207     0.001    -17.08
   NaHCO3          1.654e-07   1.658e-07    -6.781    -6.780     0.001      1.80
   (CO2)2          3.339e-09   3.347e-09    -8.476    -8.475     0.001     68.07
   NaCO3-          2.332e-09   2.103e-09    -8.632    -8.677    -0.045     -1.81
Ca            2.596e-03
   Ca+2            2.305e-03   1.543e-03    -2.637    -2.812    -0.174    -18.05
   CaSO4           2.307e-04   2.312e-04    -3.637    -3.636     0.001      7.16
   CaHCO3+         5.640e-05   5.111e-05    -4.249    -4.291    -0.043      9.38
   CaCO3           4.116e-06   4.126e-06    -5.386    -5.384     0.001    -14.63
   CaOH+           4.399e-09   3.966e-09    -8.357    -8.402    -0.045     (0)  
   CaHSO4+         9.780e-11   8.817e-11   -10.010   -10.055    -0.045     (0)  
Cl            1.072e-04
   Cl-             1.072e-04   9.655e-05    -3.970    -4.015    -0.046     17.84
F             3.160e-05
   F-              3.089e-05   2.779e-05    -4.510    -4.556    -0.046     -1.39
   MgF+            7.067e-07   6.376e-07    -6.151    -6.195    -0.045    -10.52
   HF              2.330e-09   2.335e-09    -8.633    -8.632     0.001     12.09
   NaF             1.496e-09   1.499e-09    -8.825    -8.824     0.001      6.92
   HF2-            2.575e-13   2.321e-13   -12.589   -12.634    -0.045     21.69
H(0)          6.391e-26
   H2              3.195e-26   3.203e-26   -25.495   -25.494     0.001     28.62
K             1.689e-04
   K+              1.680e-04   1.512e-04    -3.775    -3.821    -0.046      8.78
   KSO4-           9.115e-07   8.246e-07    -6.040    -6.084    -0.043     33.92
Mg            6.832e-04
   Mg+2            5.982e-04   4.031e-04    -3.223    -3.395    -0.171    -21.32
   MgSO4           6.837e-05   6.853e-05    -4.165    -4.164     0.001      5.50
   MgHCO3+         1.527e-05   1.376e-05    -4.816    -4.862    -0.045      5.27
   MgF+            7.067e-07   6.376e-07    -6.151    -6.195    -0.045    -10.52
   MgCO3           6.187e-07   6.202e-07    -6.209    -6.207     0.001    -17.08
   MgOH+           1.189e-08   1.079e-08    -7.925    -7.967    -0.042     (0)  
Na            1.044e-04
   Na+             1.038e-04   9.376e-05    -3.984    -4.028    -0.044     -1.85
   NaSO4-          4.419e-07   3.998e-07    -6.355    -6.398    -0.043     14.51
   NaHCO3          1.654e-07   1.658e-07    -6.781    -6.780     0.001      1.80
   NaCO3-          2.332e-09   2.103e-09    -8.632    -8.677    -0.045     -1.81
   NaF             1.496e-09   1.499e-09    -8.825    -8.824     0.001      6.92
   NaOH            7.766e-22   7.785e-22   -21.110   -21.109     0.001     (0)  
O(0)          0.000e+00
   O2              0.000e+00   0.000e+00   -44.045   -44.044     0.001     29.71
S(6)          1.646e-03
   SO4-2           1.345e-03   8.962e-04    -2.871    -3.048    -0.176     13.52
   CaSO4           2.307e-04   2.312e-04    -3.637    -3.636     0.001      7.16
   MgSO4           6.837e-05   6.853e-05    -4.165    -4.164     0.001      5.50
   KSO4-           9.115e-07   8.246e-07    -6.040    -6.084    -0.043     33.92
   NaSO4-          4.419e-07   3.998e-07    -6.355    -6.398    -0.043     14.51
   HSO4-           5.272e-09   4.753e-09    -8.278    -8.323    -0.045     39.71
   CaHSO4+         9.780e-11   8.817e-11   -10.010   -10.055    -0.045     (0)  

------------------------------Saturation indices-------------------------------

  Phase               SI** log IAP   log K(290 K,   1 atm)

  Anhydrite        -1.67     -5.86   -4.19  CaSO4
  Aragonite        -0.26     -8.55   -8.29  CaCO3
  Calcite          -0.12     -8.55   -8.43  CaCO3
  CO2(g)           -1.94     -3.31   -1.37  CO2
  Dolomite         -0.72    -17.68  -16.96  CaMg(CO3)2
  Fluorite         -1.23    -11.92  -10.70  CaF2
  Gypsum           -1.27     -5.86   -4.59  CaSO4:2H2O
  H2(g)           -22.42    -25.49   -3.08  H2
  H2O(g)           -1.71     -0.00    1.71  H2O
  Halite           -9.61     -8.04    1.56  NaCl
  O2(g)           -41.21    -44.04   -2.83  O2
  Sylvite          -8.69     -7.84    0.86  KCl

**For a gas, SI = log10(fugacity). Fugacity = pressure * phi / 1 atm.
  For ideal gases, phi = 1.

Initial solution 6.	

-----------------------------Solution composition------------------------------

	Elements           Molality       Moles

	C(4)              3.853e-03   3.853e-03
	Ca                2.596e-03   2.596e-03
	Cl                1.044e-04   1.044e-04
	F                 3.160e-05   3.160e-05
	K                 1.663e-04   1.663e-04
	Mg                6.955e-04   6.955e-04
	Na                1.088e-04   1.088e-04
	S(6)              1.666e-03   1.666e-03

----------------------------Description of solution----------------------------

                                       pH  =   7.410    
                                       pe  =   4.000    
      Specific Conductance (µS/cm,  17°C)  = 528
                          Density (g/cm³)  =   0.99923
                               Volume (L)  =   1.00129
                        Activity of water  =   1.000
                 Ionic strength (mol/kgw)  =   1.052e-02
                       Mass of water (kg)  =   1.000e+00
                 Total alkalinity (eq/kg)  =   3.559e-03
                       Total CO2 (mol/kg)  =   3.853e-03
                         Temperature (°C)  =  17.00
                  Electrical balance (eq)  =  -1.696e-04
 Percent error, 100*(Cat-|An|)/(Cat+|An|)  =  -1.36
                               Iterations  =   6 (47 overall)
                                  Total H  = 1.110160e+02
                                  Total O  = 5.552414e+01

----------------------------Distribution of species----------------------------

                                               Log       Log       Log    mole V
   Species          Molality    Activity  Molality  Activity     Gamma    cm³/mol

   OH-             1.533e-07   1.378e-07    -6.815    -6.861    -0.046     -4.42
   H+              4.262e-08   3.890e-08    -7.370    -7.410    -0.040      0.00
   H2O             5.551e+01   9.998e-01     1.744    -0.000     0.000     18.04
C(4)          3.853e-03
   HCO3-           3.458e-03   3.127e-03    -2.461    -2.505    -0.044     24.07
   CO2             3.071e-04   3.079e-04    -3.513    -3.512     0.001     34.03
   CaHCO3+         5.852e-05   5.301e-05    -4.233    -4.276    -0.043      9.38
   MgHCO3+         1.613e-05   1.453e-05    -4.792    -4.838    -0.046      5.27
   CaCO3           7.084e-06   7.101e-06    -5.150    -5.149     0.001    -14.63
   CO3-2           4.715e-06   3.153e-06    -5.327    -5.501    -0.175     -5.86
   MgCO3           1.085e-06   1.087e-06    -5.965    -5.964     0.001    -17.08
   NaHCO3          1.794e-07   1.798e-07    -6.746    -6.745     0.001      1.80
   NaCO3-          4.201e-09   3.785e-09    -8.377    -8.422    -0.045     -1.81
   (CO2)2          1.316e-09   1.320e-09    -8.881    -8.880     0.001     68.07
Ca            2.596e-03
   Ca+2            2.298e-03   1.536e-03    -2.639    -2.814    -0.175    -18.05
   CaSO4           2.321e-04   2.327e-04    -3.634    -3.633     0.001      7.16
   CaHCO3+         5.852e-05   5.301e-05    -4.233    -4.276    -0.043      9.38
   CaCO3           7.084e-06   7.101e-06    -5.150    -5.149     0.001    -14.63
   CaOH+           7.270e-09   6.551e-09    -8.138    -8.184    -0.045     (0)  
   CaHSO4+         5.934e-11   5.347e-11   -10.227   -10.272    -0.045     (0)  
Cl            1.044e-04
   Cl-             1.044e-04   9.396e-05    -3.981    -4.027    -0.046     17.84
F             3.160e-05
   F-              3.088e-05   2.776e-05    -4.510    -4.557    -0.046     -1.39
   MgF+            7.161e-07   6.458e-07    -6.145    -6.190    -0.045    -10.52
   NaF             1.556e-09   1.559e-09    -8.808    -8.807     0.001      6.92
   HF              1.403e-09   1.406e-09    -8.853    -8.852     0.001     12.09
   HF2-            1.550e-13   1.396e-13   -12.810   -12.855    -0.045     21.69
H(0)          2.320e-26
   H2              1.160e-26   1.163e-26   -25.936   -25.934     0.001     28.62
K             1.663e-04
   K+              1.654e-04   1.488e-04    -3.781    -3.827    -0.046      8.78
   KSO4-           9.076e-07   8.207e-07    -6.042    -6.086    -0.044     33.92
Mg            6.955e-04
   Mg+2            6.075e-04   4.086e-04    -3.216    -3.389    -0.172    -21.32
   MgSO4           7.007e-05   7.024e-05    -4.154    -4.153     0.001      5.50
   MgHCO3+         1.613e-05   1.453e-05    -4.792    -4.838    -0.046      5.27
   MgCO3           1.085e-06   1.087e-06    -5.965    -5.964     0.001    -17.08
   MgF+            7.161e-07   6.458e-07    -6.145    -6.190    -0.045    -10.52
   MgOH+           2.001e-08   1.815e-08    -7.699    -7.741    -0.042     (0)  
Na            1.088e-04
   Na+             1.082e-04   9.761e-05    -3.966    -4.011    -0.045     -1.85
   NaSO4-          4.653e-07   4.208e-07    -6.332    -6.376    -0.044     14.51
   NaHCO3          1.794e-07   1.798e-07    -6.746    -6.745     0.001      1.80
   NaCO3-          4.201e-09   3.785e-09    -8.377    -8.422    -0.045     -1.81
   NaF             1.556e-09   1.559e-09    -8.808    -8.807     0.001      6.92
   NaOH            1.342e-21   1.345e-21   -20.872   -20.871     0.001     (0)  
O(0)          0.000e+00
   O2              0.000e+00   0.000e+00   -43.165   -43.164     0.001     29.71
S(6)          1.666e-03
   SO4-2           1.363e-03   9.062e-04    -2.866    -3.043    -0.177     13.53
   CaSO4           2.321e-04   2.327e-04    -3.634    -3.633     0.001      7.16
   MgSO4           7.007e-05   7.024e-05    -4.154    -4.153     0.001      5.50
   KSO4-           9.076e-07   8.207e-07    -6.042    -6.086    -0.044     33.92
   NaSO4-          4.653e-07   4.208e-07    -6.332    -6.376    -0.044     14.51
   HSO4-           3.213e-09   2.896e-09    -8.493    -8.538    -0.045     39.71
   CaHSO4+         5.934e-11   5.347e-11   -10.227   -10.272    -0.045     (0)  

------------------------------Saturation indices-------------------------------

  Phase               SI** log IAP   log K(290 K,   1 atm)

  Anhydrite        -1.66     -5.86   -4.19  CaSO4
  Aragonite        -0.03     -8.31   -8.29  CaCO3
  Calcite           0.12     -8.31   -8.43  CaCO3
  CO2(g)           -2.14     -3.51   -1.37  CO2
  Dolomite         -0.24    -17.20  -16.96  CaMg(CO3)2
  Fluorite         -1.23    -11.93  -10.70  CaF2
  Gypsum           -1.27     -5.86   -4.59  CaSO4:2H2O
  H2(g)           -22.86    -25.93   -3.08  H2
  H2O(g)           -1.71     -0.00    1.71  H2O
  Halite           -9.60     -8.04    1.56  NaCl
  O2(g)           -40.33    -43.16   -2.83  O2
  Sylvite          -8.71     -7.85    0.86  KCl

**For a gas, SI = log10(fugacity). Fugacity = pressure * phi / 1 atm.
  For ideal gases, phi = 1.

Initial solution 7.	

-----------------------------Solution composition------------------------------

	Elements           Molality       Moles

	C(4)              3.837e-03   3.837e-03
	Ca                2.546e-03   2.546e-03
	Cl                1.072e-04   1.072e-04
	F                 3.160e-05   3.160e-05
	K                 1.766e-04   1.766e-04
	Mg                6.790e-04   6.790e-04
	Na                1.219e-04   1.219e-04
	S(6)              1.687e-03   1.687e-03

----------------------------Description of solution----------------------------

                                       pH  =   7.830    
                                       pe  =   4.000    
      Specific Conductance (µS/cm,  17°C)  = 526
                          Density (g/cm³)  =   0.99932
                               Volume (L)  =   1.00120
                        Activity of water  =   1.000
                 Ionic strength (mol/kgw)  =   1.052e-02
                       Mass of water (kg)  =   1.000e+00
                 Total alkalinity (eq/kg)  =   3.749e-03
                       Total CO2 (mol/kg)  =   3.837e-03
                         Temperature (°C)  =  16.50
                  Electrical balance (eq)  =  -5.131e-04
 Percent error, 100*(Cat-|An|)/(Cat+|An|)  =  -4.08
                               Iterations  =   7 (54 overall)
                                  Total H  = 1.110161e+02
                                  Total O  = 5.552435e+01

----------------------------Distribution of species----------------------------

                                               Log       Log       Log    mole V
   Species          Molality    Activity  Molality  Activity     Gamma    cm³/mol

   OH-             3.867e-07   3.477e-07    -6.413    -6.459    -0.046     -4.46
   H+              1.620e-08   1.479e-08    -7.790    -7.830    -0.040      0.00
   H2O             5.551e+01   9.999e-01     1.744    -0.000     0.000     18.04
C(4)          3.837e-03
   HCO3-           3.605e-03   3.260e-03    -2.443    -2.487    -0.044     24.02
   CO2             1.228e-04   1.231e-04    -3.911    -3.910     0.001     34.01
   CaHCO3+         5.881e-05   5.327e-05    -4.231    -4.274    -0.043      9.35
   CaCO3           1.857e-05   1.862e-05    -4.731    -4.730     0.001    -14.63
   MgHCO3+         1.633e-05   1.471e-05    -4.787    -4.832    -0.045      5.25
   CO3-2           1.276e-05   8.537e-06    -4.894    -5.069    -0.175     -5.94
   MgCO3           2.834e-06   2.841e-06    -5.548    -5.546     0.001    -17.08
   NaHCO3          2.100e-07   2.105e-07    -6.678    -6.677     0.001      1.80
   NaCO3-          1.240e-08   1.118e-08    -7.907    -7.952    -0.045     -1.88
   (CO2)2          2.066e-10   2.071e-10    -9.685    -9.684     0.001     68.02
Ca            2.546e-03
   Ca+2            2.239e-03   1.497e-03    -2.650    -2.825    -0.175    -18.06
   CaSO4           2.295e-04   2.301e-04    -3.639    -3.638     0.001      7.14
   CaHCO3+         5.881e-05   5.327e-05    -4.231    -4.274    -0.043      9.35
   CaCO3           1.857e-05   1.862e-05    -4.731    -4.730     0.001    -14.63
   CaOH+           1.863e-08   1.679e-08    -7.730    -7.775    -0.045     (0)  
   CaHSO4+         2.217e-11   1.998e-11   -10.654   -10.699    -0.045     (0)  
Cl            1.072e-04
   Cl-             1.072e-04   9.651e-05    -3.970    -4.015    -0.046     17.81
F             3.160e-05
   F-              3.091e-05   2.779e-05    -4.510    -4.556    -0.046     -1.40
   MgF+            6.904e-07   6.227e-07    -6.161    -6.206    -0.045    -10.52
   NaF             1.744e-09   1.748e-09    -8.759    -8.757     0.001      6.90
   HF              5.292e-10   5.304e-10    -9.276    -9.275     0.001     12.06
   HF2-            5.822e-14   5.247e-14   -13.235   -13.280    -0.045     21.66
H(0)          3.371e-27
   H2              1.686e-27   1.690e-27   -26.773   -26.772     0.001     28.62
K             1.766e-04
   K+              1.756e-04   1.579e-04    -3.756    -3.802    -0.046      8.76
   KSO4-           9.723e-07   8.793e-07    -6.012    -6.056    -0.044     33.90
Mg            6.790e-04
   Mg+2            5.907e-04   3.974e-04    -3.229    -3.401    -0.172    -21.30
   MgSO4           6.848e-05   6.864e-05    -4.164    -4.163     0.001      5.47
   MgHCO3+         1.633e-05   1.471e-05    -4.787    -4.832    -0.045      5.25
   MgCO3           2.834e-06   2.841e-06    -5.548    -5.546     0.001    -17.08
   MgF+            6.904e-07   6.227e-07    -6.161    -6.206    -0.045    -10.52
   MgOH+           4.880e-08   4.427e-08    -7.312    -7.354    -0.042     (0)  
Na            1.219e-04
   Na+             1.211e-04   1.093e-04    -3.917    -3.961    -0.045     -1.88
   NaSO4-          5.290e-07   4.784e-07    -6.277    -6.320    -0.044     14.52
   NaHCO3          2.100e-07   2.105e-07    -6.678    -6.677     0.001      1.80
   NaCO3-          1.240e-08   1.118e-08    -7.907    -7.952    -0.045     -1.88
   NaF             1.744e-09   1.748e-09    -8.759    -8.757     0.001      6.90
   NaOH            3.792e-21   3.801e-21   -20.421   -20.420     0.001     (0)  
O(0)          0.000e+00
   O2              0.000e+00   0.000e+00   -41.661   -41.659     0.001     29.66
S(6)          1.687e-03
   SO4-2           1.388e-03   9.230e-04    -2.858    -3.035    -0.177     13.43
   CaSO4           2.295e-04   2.301e-04    -3.639    -3.638     0.001      7.14
   MgSO4           6.848e-05   6.864e-05    -4.164    -4.163     0.001      5.47
   KSO4-           9.723e-07   8.793e-07    -6.012    -6.056    -0.044     33.90
   NaSO4-          5.290e-07   4.784e-07    -6.277    -6.320    -0.044     14.52
   HSO4-           1.232e-09   1.110e-09    -8.909    -8.955    -0.045     39.66
   CaHSO4+         2.217e-11   1.998e-11   -10.654   -10.699    -0.045     (0)  

------------------------------Saturation indices-------------------------------

  Phase               SI** log IAP   log K(289 K,   1 atm)

  Anhydrite        -1.67     -5.86   -4.19  CaSO4
  Aragonite         0.39     -7.89   -8.29  CaCO3
  Calcite           0.54     -7.89   -8.43  CaCO3
  CO2(g)           -2.55     -3.91   -1.36  CO2
  Dolomite          0.59    -16.36  -16.95  CaMg(CO3)2
  Fluorite         -1.23    -11.94  -10.71  CaF2
  Gypsum           -1.27     -5.86   -4.59  CaSO4:2H2O
  H2(g)           -23.69    -26.77   -3.08  H2
  H2O(g)           -1.73     -0.00    1.73  H2O
  Halite           -9.54     -7.98    1.56  NaCl
  O2(g)           -38.83    -41.66   -2.83  O2
  Sylvite          -8.67     -7.82    0.86  KCl

**For a gas, SI = log10(fugacity). Fugacity = pressure * phi / 1 atm.
  For ideal gases, phi = 1.

Initial solution 8.	

-----------------------------Solution composition------------------------------

	Elements           Molality       Moles

	C(4)              3.673e-03   3.673e-03
	Ca                2.496e-03   2.496e-03
	Cl                1.044e-04   1.044e-04
	F                 3.160e-05   3.160e-05
	K                 1.689e-04   1.689e-04
	Mg                6.708e-04   6.708e-04
	Na                1.175e-04   1.175e-04
	S(6)              1.687e-03   1.687e-03

----------------------------Description of solution----------------------------

                                       pH  =   7.980    
                                       pe  =   4.000    
      Specific Conductance (µS/cm,  13°C)  = 475
                          Density (g/cm³)  =   0.99984
                               Volume (L)  =   1.00068
                        Activity of water  =   1.000
                 Ionic strength (mol/kgw)  =   1.039e-02
                       Mass of water (kg)  =   1.000e+00
                 Total alkalinity (eq/kg)  =   3.625e-03
                       Total CO2 (mol/kg)  =   3.673e-03
                         Temperature (°C)  =  13.00
                  Electrical balance (eq)  =  -5.147e-04
 Percent error, 100*(Cat-|An|)/(Cat+|An|)  =  -4.16
                               Iterations  =   7 (61 overall)
                                  Total H  = 1.110160e+02
                                  Total O  = 5.552390e+01

----------------------------Distribution of species----------------------------

                                               Log       Log       Log    mole V
   Species          Molality    Activity  Molality  Activity     Gamma    cm³/mol

   OH-             4.057e-07   3.652e-07    -6.392    -6.437    -0.046     -4.70
   H+              1.146e-08   1.047e-08    -7.941    -7.980    -0.039      0.00
   H2O             5.551e+01   9.999e-01     1.744    -0.000     0.000     18.03
C(4)          3.673e-03
   HCO3-           3.475e-03   3.146e-03    -2.459    -2.502    -0.043     23.62
   CO2             8.962e-05   8.983e-05    -4.048    -4.047     0.001     33.82
   CaHCO3+         5.154e-05   4.673e-05    -4.288    -4.330    -0.042      9.16
   CaCO3           2.191e-05   2.196e-05    -4.659    -4.658     0.001    -14.64
   CO3-2           1.582e-05   1.063e-05    -4.801    -4.974    -0.173     -6.52
   MgHCO3+         1.562e-05   1.409e-05    -4.806    -4.851    -0.045      5.10
   MgCO3           3.343e-06   3.351e-06    -5.476    -5.475     0.001    -17.08
   NaHCO3          1.999e-07   2.004e-07    -6.699    -6.698     0.001      1.80
   NaCO3-          1.232e-08   1.111e-08    -7.909    -7.954    -0.045     -2.41
   (CO2)2          9.664e-11   9.687e-11   -10.015   -10.014     0.001     67.65
Ca            2.496e-03
   Ca+2            2.200e-03   1.477e-03    -2.658    -2.831    -0.173    -18.16
   CaSO4           2.230e-04   2.236e-04    -3.652    -3.651     0.001      6.96
   CaHCO3+         5.154e-05   4.673e-05    -4.288    -4.330    -0.042      9.16
   CaCO3           2.191e-05   2.196e-05    -4.659    -4.658     0.001    -14.64
   CaOH+           2.594e-08   2.340e-08    -7.586    -7.631    -0.045     (0)  
   CaHSO4+         1.461e-11   1.318e-11   -10.835   -10.880    -0.045     (0)  
Cl            1.044e-04
   Cl-             1.044e-04   9.407e-05    -3.981    -4.027    -0.045     17.62
F             3.160e-05
   F-              3.095e-05   2.786e-05    -4.509    -4.555    -0.046     -1.51
   MgF+            6.459e-07   5.832e-07    -6.190    -6.234    -0.044    -10.54
   NaF             1.688e-09   1.692e-09    -8.773    -8.772     0.001      6.72
   HF              3.537e-10   3.545e-10    -9.451    -9.450     0.001     11.85
   HF2-            3.757e-14   3.390e-14   -13.425   -13.470    -0.045     21.40
H(0)          1.754e-27
   H2              8.771e-28   8.792e-28   -27.057   -27.056     0.001     28.62
K             1.689e-04
   K+              1.680e-04   1.513e-04    -3.775    -3.820    -0.046      8.60
   KSO4-           8.828e-07   7.992e-07    -6.054    -6.097    -0.043     33.74
Mg            6.708e-04
   Mg+2            5.882e-04   3.974e-04    -3.231    -3.401    -0.170    -21.17
   MgSO4           6.297e-05   6.313e-05    -4.201    -4.200     0.001      5.29
   MgHCO3+         1.562e-05   1.409e-05    -4.806    -4.851    -0.045      5.10
   MgCO3           3.343e-06   3.351e-06    -5.476    -5.475     0.001    -17.08
   MgF+            6.459e-07   5.832e-07    -6.190    -6.234    -0.044    -10.54
   MgOH+           4.906e-08   4.455e-08    -7.309    -7.351    -0.042     (0)  
Na            1.175e-04
   Na+             1.168e-04   1.055e-04    -3.933    -3.977    -0.044     -2.14
   NaSO4-          5.047e-07   4.569e-07    -6.297    -6.340    -0.043     14.53
   NaHCO3          1.999e-07   2.004e-07    -6.699    -6.698     0.001      1.80
   NaCO3-          1.232e-08   1.111e-08    -7.909    -7.954    -0.045     -2.41
   NaF             1.688e-09   1.692e-09    -8.773    -8.772     0.001      6.72
   NaOH            3.845e-21   3.854e-21   -20.415   -20.414     0.001     (0)  
O(0)          0.000e+00
   O2              0.000e+00   0.000e+00   -42.304   -42.303     0.001     29.29
S(6)          1.687e-03
   SO4-2           1.400e-03   9.351e-04    -2.854    -3.029    -0.175     12.70
   CaSO4           2.230e-04   2.236e-04    -3.652    -3.651     0.001      6.96
   MgSO4           6.297e-05   6.313e-05    -4.201    -4.200     0.001      5.29
   KSO4-           8.828e-07   7.992e-07    -6.054    -6.097    -0.043     33.74
   NaSO4-          5.047e-07   4.569e-07    -6.297    -6.340    -0.043     14.53
   HSO4-           8.232e-10   7.426e-10    -9.085    -9.129    -0.045     39.30
   CaHSO4+         1.461e-11   1.318e-11   -10.835   -10.880    -0.045     (0)  

------------------------------Saturation indices-------------------------------

  Phase               SI** log IAP   log K(286 K,   1 atm)

  Anhydrite        -1.71     -5.86   -4.15  CaSO4
  Aragonite         0.46     -7.80   -8.27  CaCO3
  Calcite           0.61     -7.80   -8.41  CaCO3
  CO2(g)           -2.73     -4.05   -1.31  CO2
  Dolomite          0.73    -16.18  -16.91  CaMg(CO3)2
  Fluorite         -1.19    -11.94  -10.75  CaF2
  Gypsum           -1.27     -5.86   -4.59  CaSO4:2H2O
  H2(g)           -23.99    -27.06   -3.07  H2
  H2O(g)           -1.83     -0.00    1.83  H2O
  Halite           -9.56     -8.00    1.56  NaCl
  O2(g)           -39.51    -42.30   -2.79  O2
  Sylvite          -8.68     -7.85    0.84  KCl

**For a gas, SI = log10(fugacity). Fugacity = pressure * phi / 1 atm.
  For ideal gases, phi = 1.

Initial solution 9.	

-----------------------------Solution composition------------------------------

	Elements           Molality       Moles

	C(4)              3.607e-03   3.607e-03
	Ca                2.471e-03   2.471e-03
	Cl                1.072e-04   1.072e-04
	F                 3.160e-05   3.160e-05
	K                 1.714e-04   1.714e-04
	Mg                6.667e-04   6.667e-04
	Na                1.088e-04   1.088e-04
	S(6)              1.687e-03   1.687e-03

----------------------------Description of solution----------------------------

                                       pH  =   7.920    
                                       pe  =   4.000    
      Specific Conductance (µS/cm,  14°C)  = 477
                          Density (g/cm³)  =   0.99977
                               Volume (L)  =   1.00074
                        Activity of water  =   1.000
                 Ionic strength (mol/kgw)  =   1.030e-02
                       Mass of water (kg)  =   1.000e+00
                 Total alkalinity (eq/kg)  =   3.543e-03
                       Total CO2 (mol/kg)  =   3.607e-03
                         Temperature (°C)  =  13.50
                  Electrical balance (eq)  =  -5.004e-04
 Percent error, 100*(Cat-|An|)/(Cat+|An|)  =  -4.09
                               Iterations  =   7 (68 overall)
                                  Total H  = 1.110159e+02
                                  Total O  = 5.552369e+01

----------------------------Distribution of species----------------------------

                                               Log       Log       Log    mole V
   Species          Molality    Activity  Molality  Activity     Gamma    cm³/mol

   OH-             3.688e-07   3.321e-07    -6.433    -6.479    -0.046     -4.66
   H+              1.316e-08   1.202e-08    -7.881    -7.920    -0.039      0.00
   H2O             5.551e+01   9.999e-01     1.744    -0.000     0.000     18.03
C(4)          3.607e-03
   HCO3-           3.406e-03   3.084e-03    -2.468    -2.511    -0.043     23.68
   CO2             9.988e-05   1.001e-04    -4.001    -3.999     0.001     33.85
   CaHCO3+         5.073e-05   4.601e-05    -4.295    -4.337    -0.042      9.19
   CaCO3           1.890e-05   1.895e-05    -4.724    -4.722     0.001    -14.64
   MgHCO3+         1.524e-05   1.375e-05    -4.817    -4.862    -0.045      5.12
   CO3-2           1.367e-05   9.196e-06    -4.864    -5.036    -0.172     -6.43
   MgCO3           2.899e-06   2.906e-06    -5.538    -5.537     0.001    -17.08
   NaHCO3          1.810e-07   1.814e-07    -6.742    -6.741     0.001      1.80
   NaCO3-          1.014e-08   9.155e-09    -7.994    -8.038    -0.045     -2.33
   (CO2)2          1.223e-10   1.226e-10    -9.912    -9.911     0.001     67.70
Ca            2.471e-03
   Ca+2            2.179e-03   1.465e-03    -2.662    -2.834    -0.173    -18.14
   CaSO4           2.224e-04   2.229e-04    -3.653    -3.652     0.001      6.99
   CaHCO3+         5.073e-05   4.601e-05    -4.295    -4.337    -0.042      9.19
   CaCO3           1.890e-05   1.895e-05    -4.724    -4.722     0.001    -14.64
   CaOH+           2.240e-08   2.021e-08    -7.650    -7.694    -0.045     (0)  
   CaHSO4+         1.682e-11   1.518e-11   -10.774   -10.819    -0.045     (0)  
Cl            1.072e-04
   Cl-             1.072e-04   9.665e-05    -3.970    -4.015    -0.045     17.65
F             3.160e-05
   F-              3.095e-05   2.787e-05    -4.509    -4.555    -0.046     -1.49
   MgF+            6.487e-07   5.859e-07    -6.188    -6.232    -0.044    -10.54
   NaF             1.564e-09   1.567e-09    -8.806    -8.805     0.001      6.75
   HF              4.096e-10   4.106e-10    -9.388    -9.387     0.001     11.88
   HF2-            4.375e-14   3.948e-14   -13.359   -13.404    -0.045     21.44
H(0)          2.300e-27
   H2              1.150e-27   1.153e-27   -26.939   -26.938     0.001     28.62
K             1.714e-04
   K+              1.705e-04   1.536e-04    -3.768    -3.814    -0.045      8.62
   KSO4-           9.057e-07   8.202e-07    -6.043    -6.086    -0.043     33.77
Mg            6.667e-04
   Mg+2            5.843e-04   3.952e-04    -3.233    -3.403    -0.170    -21.19
   MgSO4           6.359e-05   6.374e-05    -4.197    -4.196     0.001      5.32
   MgHCO3+         1.524e-05   1.375e-05    -4.817    -4.862    -0.045      5.12
   MgCO3           2.899e-06   2.906e-06    -5.538    -5.537     0.001    -17.08
   MgF+            6.487e-07   5.859e-07    -6.188    -6.232    -0.044    -10.54
   MgOH+           4.461e-08   4.052e-08    -7.351    -7.392    -0.042     (0)  
Na            1.088e-04
   Na+             1.081e-04   9.774e-05    -3.966    -4.010    -0.044     -2.10
   NaSO4-          4.695e-07   4.251e-07    -6.328    -6.371    -0.043     14.52
   NaHCO3          1.810e-07   1.814e-07    -6.742    -6.741     0.001      1.80
   NaCO3-          1.014e-08   9.155e-09    -7.994    -8.038    -0.045     -2.33
   NaF             1.564e-09   1.567e-09    -8.806    -8.805     0.001      6.75
   NaOH            3.238e-21   3.246e-21   -20.490   -20.489     0.001     (0)  
O(0)          0.000e+00
   O2              0.000e+00   0.000e+00   -42.365   -42.364     0.001     29.35
S(6)          1.687e-03
   SO4-2           1.400e-03   9.362e-04    -2.854    -3.029    -0.175     12.81
   CaSO4           2.224e-04   2.229e-04    -3.653    -3.652     0.001      6.99
   MgSO4           6.359e-05   6.374e-05    -4.197    -4.196     0.001      5.32
   KSO4-           9.057e-07   8.202e-07    -6.043    -6.086    -0.043     33.77
   NaSO4-          4.695e-07   4.251e-07    -6.328    -6.371    -0.043     14.52
   HSO4-           9.553e-10   8.621e-10    -9.020    -9.064    -0.045     39.36
   CaHSO4+         1.682e-11   1.518e-11   -10.774   -10.819    -0.045     (0)  

------------------------------Saturation indices-------------------------------

  Phase               SI** log IAP   log K(286 K,   1 atm)

  Anhydrite        -1.71     -5.86   -4.16  CaSO4
  Aragonite         0.40     -7.87   -8.27  CaCO3
  Calcite           0.54     -7.87   -8.42  CaCO3
  CO2(g)           -2.68     -4.00   -1.32  CO2
  Dolomite          0.61    -16.31  -16.92  CaMg(CO3)2
  Fluorite         -1.20    -11.94  -10.75  CaF2
  Gypsum           -1.27     -5.86   -4.59  CaSO4:2H2O
  H2(g)           -23.87    -26.94   -3.07  H2
  H2O(g)           -1.81     -0.00    1.81  H2O
  Halite           -9.59     -8.02    1.56  NaCl
  O2(g)           -39.57    -42.36   -2.80  O2
  Sylvite          -8.67     -7.83    0.84  KCl

**For a gas, SI = log10(fugacity). Fugacity = pressure * phi / 1 atm.
  For ideal gases, phi = 1.

Initial solution 10.	

-----------------------------Solution composition------------------------------

	Elements           Molality       Moles

	C(4)              3.427e-03   3.427e-03
	Ca                2.421e-03   2.421e-03
	Cl                1.101e-04   1.101e-04
	F                 3.160e-05   3.160e-05
	K                 1.638e-04   1.638e-04
	Mg                6.872e-04   6.872e-04
	Na                1.001e-04   1.001e-04
	S(6)              1.708e-03   1.708e-03

----------------------------Description of solution----------------------------

                                       pH  =   7.980    
                                       pe  =   4.000    
      Specific Conductance (µS/cm,  14°C)  = 471
                          Density (g/cm³)  =   0.99976
                               Volume (L)  =   1.00074
                        Activity of water  =   1.000
                 Ionic strength (mol/kgw)  =   1.019e-02
                       Mass of water (kg)  =   1.000e+00
                 Total alkalinity (eq/kg)  =   3.383e-03
                       Total CO2 (mol/kg)  =   3.427e-03
                         Temperature (°C)  =  13.50
                  Electrical balance (eq)  =  -4.596e-04
 Percent error, 100*(Cat-|An|)/(Cat+|An|)  =  -3.82
                               Iterations  =   7 (75 overall)
                                  Total H  = 1.110157e+02
                                  Total O  = 5.552325e+01

----------------------------Distribution of species----------------------------

                                               Log       Log       Log    mole V
   Species          Molality    Activity  Molality  Activity     Gamma    cm³/mol

   OH-             4.232e-07   3.813e-07    -6.373    -6.419    -0.045     -4.66
   H+              1.145e-08   1.047e-08    -7.941    -7.980    -0.039      0.00
   H2O             5.551e+01   9.999e-01     1.744    -0.000     0.000     18.03
C(4)          3.427e-03
   HCO3-           3.243e-03   2.938e-03    -2.489    -2.532    -0.043     23.68
   CO2             8.288e-05   8.307e-05    -4.082    -4.081     0.001     33.85
   CaHCO3+         4.735e-05   4.297e-05    -4.325    -4.367    -0.042      9.19
   CaCO3           2.027e-05   2.031e-05    -4.693    -4.692     0.001    -14.64
   MgHCO3+         1.497e-05   1.351e-05    -4.825    -4.869    -0.045      5.12
   CO3-2           1.493e-05   1.006e-05    -4.826    -4.997    -0.172     -6.43
   MgCO3           3.272e-06   3.279e-06    -5.485    -5.484     0.001    -17.08
   NaHCO3          1.587e-07   1.590e-07    -6.799    -6.798     0.001      1.80
   NaCO3-          1.021e-08   9.216e-09    -7.991    -8.035    -0.044     -2.33
   (CO2)2          8.422e-11   8.442e-11   -10.075   -10.074     0.001     67.70
Ca            2.421e-03
   Ca+2            2.132e-03   1.436e-03    -2.671    -2.843    -0.172    -18.14
   CaSO4           2.213e-04   2.219e-04    -3.655    -3.654     0.001      6.99
   CaHCO3+         4.735e-05   4.297e-05    -4.325    -4.367    -0.042      9.19
   CaCO3           2.027e-05   2.031e-05    -4.693    -4.692     0.001    -14.64
   CaOH+           2.520e-08   2.275e-08    -7.599    -7.643    -0.044     (0)  
   CaHSO4+         1.457e-11   1.316e-11   -10.836   -10.881    -0.044     (0)  
Cl            1.101e-04
   Cl-             1.101e-04   9.924e-05    -3.958    -4.003    -0.045     17.65
F             3.160e-05
   F-              3.093e-05   2.786e-05    -4.510    -4.555    -0.045     -1.49
   MgF+            6.687e-07   6.043e-07    -6.175    -6.219    -0.044    -10.54
   NaF             1.439e-09   1.442e-09    -8.842    -8.841     0.001      6.75
   HF              3.567e-10   3.576e-10    -9.448    -9.447     0.001     11.88
   HF2-            3.807e-14   3.438e-14   -13.419   -13.464    -0.044     21.44
H(0)          1.745e-27
   H2              8.724e-28   8.744e-28   -27.059   -27.058     0.001     28.62
K             1.638e-04
   K+              1.629e-04   1.468e-04    -3.788    -3.833    -0.045      8.62
   KSO4-           8.784e-07   7.958e-07    -6.056    -6.099    -0.043     33.77
Mg            6.872e-04
   Mg+2            6.017e-04   4.077e-04    -3.221    -3.390    -0.169    -21.19
   MgSO4           6.660e-05   6.676e-05    -4.176    -4.175     0.001      5.32
   MgHCO3+         1.497e-05   1.351e-05    -4.825    -4.869    -0.045      5.12
   MgCO3           3.272e-06   3.279e-06    -5.485    -5.484     0.001    -17.08
   MgF+            6.687e-07   6.043e-07    -6.175    -6.219    -0.044    -10.54
   MgOH+           5.282e-08   4.799e-08    -7.277    -7.319    -0.042     (0)  
Na            1.001e-04
   Na+             9.949e-05   8.996e-05    -4.002    -4.046    -0.044     -2.10
   NaSO4-          4.385e-07   3.973e-07    -6.358    -6.401    -0.043     14.52
   NaHCO3          1.587e-07   1.590e-07    -6.799    -6.798     0.001      1.80
   NaCO3-          1.021e-08   9.216e-09    -7.991    -8.035    -0.044     -2.33
   NaF             1.439e-09   1.442e-09    -8.842    -8.841     0.001      6.75
   NaOH            3.422e-21   3.430e-21   -20.466   -20.465     0.001     (0)  
O(0)          0.000e+00
   O2              0.000e+00   0.000e+00   -42.125   -42.124     0.001     29.35
S(6)          1.708e-03
   SO4-2           1.419e-03   9.506e-04    -2.848    -3.022    -0.174     12.81
   CaSO4           2.213e-04   2.219e-04    -3.655    -3.654     0.001      6.99
   MgSO4           6.660e-05   6.676e-05    -4.176    -4.175     0.001      5.32
   KSO4-           8.784e-07   7.958e-07    -6.056    -6.099    -0.043     33.77
   NaSO4-          4.385e-07   3.973e-07    -6.358    -6.401    -0.043     14.52
   HSO4-           8.444e-10   7.624e-10    -9.073    -9.118    -0.044     39.36
   CaHSO4+         1.457e-11   1.316e-11   -10.836   -10.881    -0.044     (0)  

------------------------------Saturation indices-------------------------------

  Phase               SI** log IAP   log K(286 K,   1 atm)

  Anhydrite        -1.71     -5.86   -4.16  CaSO4
  Aragonite         0.43     -7.84   -8.27  CaCO3
  Calcite           0.57     -7.84   -8.42  CaCO3
  CO2(g)           -2.76     -4.08   -1.32  CO2
  Dolomite          0.69    -16.23  -16.92  CaMg(CO3)2
  Fluorite         -1.21    -11.95  -10.75  CaF2
  Gypsum           -1.27     -5.87   -4.59  CaSO4:2H2O
  H2(g)           -23.99    -27.06   -3.07  H2
  H2O(g)           -1.81     -0.00    1.81  H2O
  Halite           -9.61     -8.05    1.56  NaCl
  O2(g)           -39.33    -42.12   -2.80  O2
  Sylvite          -8.68     -7.84    0.84  KCl

**For a gas, SI = log10(fugacity). Fugacity = pressure * phi / 1 atm.
  For ideal gases, phi = 1.

Initial solution 11.	

-----------------------------Solution composition------------------------------

	Elements           Molality       Moles

	C(4)              3.000e-03   3.000e-03
	Ca                2.072e-03   2.072e-03
	Cl                1.213e-04   1.213e-04
	F                 3.160e-05   3.160e-05
	K                 1.484e-04   1.484e-04
	Mg                6.172e-04   6.172e-04
	Na                1.088e-04   1.088e-04
	S(6)              1.479e-03   1.479e-03

----------------------------Description of solution----------------------------

                                       pH  =   8.080    
                                       pe  =   4.000    
      Specific Conductance (µS/cm,  11°C)  = 392
                          Density (g/cm³)  =   1.00000
                               Volume (L)  =   1.00044
                        Activity of water  =   1.000
                 Ionic strength (mol/kgw)  =   8.980e-03
                       Mass of water (kg)  =   1.000e+00
                 Total alkalinity (eq/kg)  =   2.976e-03
                       Total CO2 (mol/kg)  =   3.000e-03
                         Temperature (°C)  =  11.00
                  Electrical balance (eq)  =  -4.514e-04
 Percent error, 100*(Cat-|An|)/(Cat+|An|)  =  -4.24
                               Iterations  =   8 (83 overall)
                                  Total H  = 1.110153e+02
                                  Total O  = 5.552107e+01

----------------------------Distribution of species----------------------------

                                               Log       Log       Log    mole V
   Species          Molality    Activity  Molality  Activity     Gamma    cm³/mol

   OH-             4.262e-07   3.863e-07    -6.370    -6.413    -0.043     -4.87
   H+              9.057e-09   8.318e-09    -8.043    -8.080    -0.037      0.00
   H2O             5.551e+01   9.999e-01     1.744    -0.000     0.000     18.02
C(4)          3.000e-03
   HCO3-           2.855e-03   2.601e-03    -2.544    -2.585    -0.040     23.36
   CO2             6.139e-05   6.152e-05    -4.212    -4.211     0.001     33.72
   CaHCO3+         3.459e-05   3.156e-05    -4.461    -4.501    -0.040      9.04
   CaCO3           1.826e-05   1.829e-05    -4.739    -4.738     0.001    -14.65
   CO3-2           1.520e-05   1.047e-05    -4.818    -4.980    -0.162     -6.93
   MgHCO3+         1.224e-05   1.111e-05    -4.912    -4.954    -0.042      5.00
   MgCO3           3.055e-06   3.061e-06    -5.515    -5.514     0.001    -17.07
   NaHCO3          1.561e-07   1.564e-07    -6.807    -6.806     0.001      1.80
   NaCO3-          1.006e-08   9.141e-09    -7.997    -8.039    -0.042     -2.76
   (CO2)2          4.200e-11   4.208e-11   -10.377   -10.376     0.001     67.43
Ca            2.072e-03
   Ca+2            1.846e-03   1.270e-03    -2.734    -2.896    -0.162    -18.23
   CaSO4           1.733e-04   1.736e-04    -3.761    -3.760     0.001      6.85
   CaHCO3+         3.459e-05   3.156e-05    -4.461    -4.501    -0.040      9.04
   CaCO3           1.826e-05   1.829e-05    -4.739    -4.738     0.001    -14.65
   CaOH+           2.791e-08   2.534e-08    -7.554    -7.596    -0.042     (0)  
   CaHSO4+         8.760e-12   7.956e-12   -11.057   -11.099    -0.042     (0)  
Cl            1.213e-04
   Cl-             1.213e-04   1.101e-04    -3.916    -3.958    -0.042     17.49
F             3.160e-05
   F-              3.100e-05   2.810e-05    -4.509    -4.551    -0.043     -1.59
   MgF+            5.950e-07   5.408e-07    -6.226    -6.267    -0.041    -10.56
   NaF             1.588e-09   1.591e-09    -8.799    -8.798     0.001      6.61
   HF              2.740e-10   2.745e-10    -9.562    -9.561     0.001     11.71
   HF2-            2.850e-14   2.589e-14   -13.545   -13.587    -0.042     21.23
H(0)          1.132e-27
   H2              5.658e-28   5.669e-28   -27.247   -27.246     0.001     28.62
K             1.484e-04
   K+              1.477e-04   1.339e-04    -3.831    -3.873    -0.043      8.49
   KSO4-           6.861e-07   6.251e-07    -6.164    -6.204    -0.040     33.64
Mg            6.172e-04
   Mg+2            5.490e-04   3.801e-04    -3.260    -3.420    -0.160    -21.11
   MgSO4           5.227e-05   5.238e-05    -4.282    -4.281     0.001      5.18
   MgHCO3+         1.224e-05   1.111e-05    -4.912    -4.954    -0.042      5.00
   MgCO3           3.055e-06   3.061e-06    -5.515    -5.514     0.001    -17.07
   MgF+            5.950e-07   5.408e-07    -6.226    -6.267    -0.041    -10.56
   MgOH+           4.820e-08   4.403e-08    -7.317    -7.356    -0.039     (0)  
Na            1.088e-04
   Na+             1.082e-04   9.840e-05    -3.966    -4.007    -0.041     -2.31
   NaSO4-          4.233e-07   3.856e-07    -6.373    -6.414    -0.040     14.46
   NaHCO3          1.561e-07   1.564e-07    -6.807    -6.806     0.001      1.80
   NaCO3-          1.006e-08   9.141e-09    -7.997    -8.039    -0.042     -2.76
   NaF             1.588e-09   1.591e-09    -8.799    -8.798     0.001      6.61
   NaOH            3.794e-21   3.801e-21   -20.421   -20.420     0.001     (0)  
O(0)          0.000e+00
   O2              0.000e+00   0.000e+00   -42.629   -42.628     0.001     29.07
S(6)          1.479e-03
   SO4-2           1.252e-03   8.582e-04    -2.902    -3.066    -0.164     12.20
   CaSO4           1.733e-04   1.736e-04    -3.761    -3.760     0.001      6.85
   MgSO4           5.227e-05   5.238e-05    -4.282    -4.281     0.001      5.18
   KSO4-           6.861e-07   6.251e-07    -6.164    -6.204    -0.040     33.64
   NaSO4-          4.233e-07   3.856e-07    -6.373    -6.414    -0.040     14.46
   HSO4-           5.736e-10   5.209e-10    -9.241    -9.283    -0.042     39.07
   CaHSO4+         8.760e-12   7.956e-12   -11.057   -11.099    -0.042     (0)  

------------------------------Saturation indices-------------------------------

  Phase               SI** log IAP   log K(284 K,   1 atm)

  Anhydrite        -1.83     -5.96   -4.13  CaSO4
  Aragonite         0.38     -7.88   -8.26  CaCO3
  Calcite           0.53     -7.88   -8.41  CaCO3
  CO2(g)           -2.93     -4.21   -1.28  CO2
  Dolomite          0.61    -16.28  -16.89  CaMg(CO3)2
  Fluorite         -1.22    -12.00  -10.78  CaF2
  Gypsum           -1.37     -5.96   -4.60  CaSO4:2H2O
  H2(g)           -24.19    -27.25   -3.06  H2
  H2O(g)           -1.88     -0.00    1.88  H2O
  Halite           -9.52     -7.97    1.56  NaCl
  O2(g)           -39.85    -42.63   -2.78  O2
  Sylvite          -8.66     -7.83    0.83  KCl

**For a gas, SI = log10(fugacity). Fugacity = pressure * phi / 1 atm.
  For ideal gases, phi = 1.

------------------
End of simulation.
------------------

------------------------------------
Reading input data for simulation 2.
------------------------------------

-------------------------------
End of Run after 0.055 Seconds.
-------------------------------

