   Input file: Z:\0Owncloud\Colleges\AESB1120-15_Introduction to Chemistry and Chemical Thermodynamics\2021\Practical2020_Week_2.1\Answer\Phrqc4.pqi
  Output file: Z:\0Owncloud\Colleges\AESB1120-15_Introduction to Chemistry and Chemical Thermodynamics\2021\Practical2020_Week_2.1\Answer\Phrqc4.pqo
Database file: C:\Program Files (x86)\USGS\Phreeqc Interactive 3.6.2-15100\database\minteq.v4.dat

------------------
Reading data base.
------------------

	SOLUTION_MASTER_SPECIES
	SOLUTION_SPECIES
	SOLUTION_SPECIES
	PHASES
	PHASES
	SURFACE_MASTER_SPECIES
	SURFACE_SPECIES
	END
------------------------------------
Reading input data for simulation 1.
------------------------------------

	DATABASE C:\Program Files (x86)\USGS\Phreeqc Interactive 3.6.2-15100\database\minteq.v4.dat
	SOLUTION 1
	    temp      25
	    pH        7
	    pe        4
	    redox     pe
	    units     mmol/kgw
	    density   1
	    water    1 # kg
	EQUILIBRIUM_PHASES 1
	    Portlandite 0 10
	END
-------------------------------------------
Beginning of initial solution calculations.
-------------------------------------------

Initial solution 1.	

-----------------------------Solution composition------------------------------

	Elements           Molality       Moles

	Pure water     

----------------------------Description of solution----------------------------

                                       pH  =   7.000    
                                       pe  =   4.000    
                        Activity of water  =   1.000
                 Ionic strength (mol/kgw)  =   1.004e-07
                       Mass of water (kg)  =   1.000e+00
                 Total alkalinity (eq/kg)  =   6.935e-10
                         Temperature (°C)  =  25.00
                  Electrical balance (eq)  =  -6.935e-10
 Percent error, 100*(Cat-|An|)/(Cat+|An|)  =  -0.35
                               Iterations  =   0
                                  Total H  = 1.110137e+02
                                  Total O  = 5.550683e+01

----------------------------Distribution of species----------------------------

                                               Log       Log       Log    mole V
   Species          Molality    Activity  Molality  Activity     Gamma   cm³/mol

   OH-             1.007e-07   1.007e-07    -6.997    -6.997    -0.000     (0)  
   H+              1.001e-07   1.000e-07    -7.000    -7.000    -0.000      0.00
   H2O             5.551e+01   1.000e+00     1.744     0.000     0.000     18.07
H(0)          1.416e-25
   H2              7.079e-26   7.079e-26   -25.150   -25.150     0.000     (0)  
O(0)          0.000e+00
   O2              0.000e+00   0.000e+00   -41.995   -41.995     0.000     (0)  

------------------------------Saturation indices-------------------------------

  Phase               SI** log IAP   log K(298 K,   1 atm)

  O2(g)           -39.09     44.00   83.09  O2

**For a gas, SI = log10(fugacity). Fugacity = pressure * phi / 1 atm.
  For ideal gases, phi = 1.

-----------------------------------------
Beginning of batch-reaction calculations.
-----------------------------------------

Reaction step 1.

Using solution 1.	
Using pure phase assemblage 1.	

-------------------------------Phase assemblage--------------------------------

                                                      Moles in assemblage
Phase               SI  log IAP  log K(T, P)   Initial       Final       Delta

Portlandite       0.00    22.80     22.80    1.000e+01   9.979e+00  -2.119e-02

-----------------------------Solution composition------------------------------

	Elements           Molality       Moles

	Ca                2.119e-02   2.119e-02

----------------------------Description of solution----------------------------

                                       pH  =  12.475      Charge balance
                                       pe  =  -6.954      Adjusted to redox equilibrium
                        Activity of water  =   0.999
                 Ionic strength (mol/kgw)  =   5.322e-02
                       Mass of water (kg)  =   1.000e+00
                 Total alkalinity (eq/kg)  =   4.237e-02
                         Temperature (°C)  =  25.00
                  Electrical balance (eq)  =  -9.982e-10
 Percent error, 100*(Cat-|An|)/(Cat+|An|)  =  -0.00
                               Iterations  =  17
                                  Total H  = 1.110560e+02
                                  Total O  = 5.554921e+01

----------------------------Distribution of species----------------------------

                                               Log       Log       Log    mole V
   Species          Molality    Activity  Molality  Activity     Gamma   cm³/mol

   OH-             3.721e-02   3.003e-02    -1.429    -1.522    -0.093     (0)  
   H+              4.097e-13   3.349e-13   -12.388   -12.475    -0.087      0.00
   H2O             5.551e+01   9.990e-01     1.744    -0.000     0.000     18.07
Ca            2.119e-02
   Ca+2            1.602e-02   7.158e-03    -1.795    -2.145    -0.350     (0)  
   CaOH+           5.167e-03   4.289e-03    -2.287    -2.368    -0.081     (0)  
H(0)          1.267e-14
   H2              6.337e-15   6.415e-15   -14.198   -14.193     0.005     (0)  
O(0)          0.000e+00
   O2              0.000e+00   0.000e+00   -63.916   -63.910     0.005     (0)  

------------------------------Saturation indices-------------------------------

  Phase               SI** log IAP   log K(298 K,   1 atm)

  Lime             -9.89     22.80   32.70  CaO
  O2(g)           -61.00     22.08   83.09  O2
  Portlandite       0.00     22.80   22.80  Ca(OH)2

**For a gas, SI = log10(fugacity). Fugacity = pressure * phi / 1 atm.
  For ideal gases, phi = 1.

------------------
End of simulation.
------------------

------------------------------------
Reading input data for simulation 2.
------------------------------------

-------------------------------
End of Run after 0.211 Seconds.
-------------------------------

