   Input file: Z:\BackupTHe\GitHub\oit_chemistry_for_earth_sciences\chemistry_book\content\week 3.7\Assignment_Lorah_and_Herman\Answer\TravertineSpring03.pqi
  Output file: Z:\BackupTHe\GitHub\oit_chemistry_for_earth_sciences\chemistry_book\content\week 3.7\Assignment_Lorah_and_Herman\Answer\TravertineSpring03.pqo
Database file: C:\Program Files (x86)\USGS\Phreeqc Interactive 3.7.3-15968\database\wateq4f.dat

------------------
Reading data base.
------------------

	SOLUTION_MASTER_SPECIES
	SOLUTION_SPECIES
	PHASES
	EXCHANGE_MASTER_SPECIES
	EXCHANGE_SPECIES
	SURFACE_MASTER_SPECIES
	SURFACE_SPECIES
	RATES
	END
------------------------------------
Reading input data for simulation 1.
------------------------------------

	DATABASE C:\Program Files (x86)\USGS\Phreeqc Interactive 3.7.3-15968\database\wateq4f.dat
	SOLUTION_SPREAD
	    units    mg/l
	 temp	   pH	    C(4)	  Ca	   Mg	  Na	    K	   F	  Cl	   S(6)
	    	     	 as HCO3	    	     	    	     	    	    	 as SO4
	 24.3	 7.32	     308	 165	 25.4	 5.1	 14.2	   1	 3.3	    283
	 24.6	 7.23	     316	 168	   28	 3.9	 14.8	 1.1	 3.5	    291
	 24.7	  7.2	     315	 169	 26.2	 3.9	 14.3	 1.1	 5.8	    296
	 24.3	 7.24	     310	 168	   26	 3.4	 14.2	 1.1	 3.2	    283
	 23.6	 7.43	     314	 168	 26.2	 2.8	 12.9	 1.2	 3.5	    288
	 21.4	 7.79	     312	 166	 25.6	 3.5	 13.9	 1.2	 3.4	    286
	 20.5	 8.06	     311	 164	 25.2	 3.7	   14	   1	 3.5	    283
	 19.7	 8.27	     278	 160	 25.6	 3.6	 14.3	   1	 3.8	    286
	 19.6	 8.28	     273	 157	 25.5	 3.1	   14	 1.1	 3.4	    283
	 18.4	 8.37	     264	 151	 25.6	 3.2	 14.3	   1	 3.4	    283
	 14.4	 8.25	     210	 122	 21.3	 3.3	 11.4	 0.7	   4	    246
	SELECTED_OUTPUT 1
	    file                 Tavertine01.csv
	    reset                false
	    solution             true
	    ph                   true
	    temperature          true
	    alkalinity           true
	    ionic_strength       true
	    charge_balance       true
	    percent_error        true
	    totals               C(4)  Ca
	    molalities           Ca+2  HCO3-  CO3-2
	    equilibrium_phases   CO2(g)  Calcite
	    saturation_indices   CO2(g)  Calcite
	END
-------------------------------------------
Beginning of initial solution calculations.
-------------------------------------------

Initial solution 1.	

-----------------------------Solution composition------------------------------

	Elements           Molality       Moles

	C(4)              5.052e-03   5.052e-03
	Ca                4.120e-03   4.120e-03
	Cl                9.316e-05   9.316e-05
	F                 5.268e-05   5.268e-05
	K                 3.634e-04   3.634e-04
	Mg                1.046e-03   1.046e-03
	Na                2.220e-04   2.220e-04
	S(6)              2.948e-03   2.948e-03

----------------------------Description of solution----------------------------

                                       pH  =   7.320    
                                       pe  =   4.000    
                        Activity of water  =   1.000
                 Ionic strength (mol/kgw)  =   1.564e-02
                       Mass of water (kg)  =   1.000e+00
                 Total alkalinity (eq/kg)  =   4.646e-03
                       Total CO2 (mol/kg)  =   5.052e-03
                         Temperature (°C)  =  24.30
                  Electrical balance (eq)  =   2.286e-04
 Percent error, 100*(Cat-|An|)/(Cat+|An|)  =   1.25
                               Iterations  =   7
                                  Total H  = 1.110170e+02
                                  Total O  = 5.553274e+01

----------------------------Distribution of species----------------------------

                                               Log       Log       Log    mole V
   Species          Molality    Activity  Molality  Activity     Gamma    cm³/mol

   OH-             2.254e-07   1.983e-07    -6.647    -6.703    -0.056     (0)  
   H+              5.327e-08   4.786e-08    -7.273    -7.320    -0.047      0.00
   H2O             5.551e+01   9.998e-01     1.744    -0.000     0.000     18.07
C(4)          5.052e-03
   HCO3-           4.456e-03   3.952e-03    -2.351    -2.403    -0.052     (0)  
   CO2             4.276e-04   4.291e-04    -3.369    -3.367     0.002     (0)  
   CaHCO3+         1.186e-04   1.054e-04    -3.926    -3.977    -0.051     (0)  
   MgHCO3+         2.771e-05   2.443e-05    -4.557    -4.612    -0.055     (0)  
   CaCO3           1.329e-05   1.334e-05    -4.877    -4.875     0.002     (0)  
   CO3-2           6.171e-06   3.817e-06    -5.210    -5.418    -0.209     (0)  
   MgCO3           1.903e-06   1.910e-06    -5.721    -5.719     0.002     (0)  
   NaHCO3          4.308e-07   4.323e-07    -6.366    -6.364     0.002     (0)  
   NaCO3-          1.505e-08   1.335e-08    -7.822    -7.875    -0.052     (0)  
Ca            4.120e-03
   Ca+2            3.420e-03   2.115e-03    -2.466    -2.675    -0.209     (0)  
   CaSO4           5.669e-04   5.689e-04    -3.247    -3.245     0.002     (0)  
   CaHCO3+         1.186e-04   1.054e-04    -3.926    -3.977    -0.051     (0)  
   CaCO3           1.329e-05   1.334e-05    -4.877    -4.875     0.002     (0)  
   CaF+            8.991e-07   7.977e-07    -6.046    -6.098    -0.052     (0)  
   CaOH+           8.246e-09   7.331e-09    -8.084    -8.135    -0.051     (0)  
   CaHSO4+         1.792e-10   1.581e-10    -9.747    -9.801    -0.054     (0)  
Cl            9.316e-05
   Cl-             9.316e-05   8.199e-05    -4.031    -4.086    -0.055     (0)  
F             5.268e-05
   F-              5.005e-05   4.402e-05    -4.301    -4.356    -0.056     (0)  
   MgF+            1.723e-06   1.522e-06    -5.764    -5.818    -0.054     (0)  
   CaF+            8.991e-07   7.977e-07    -6.046    -6.098    -0.052     (0)  
   NaF             4.911e-09   4.929e-09    -8.309    -8.307     0.002     (0)  
   HF              3.109e-09   3.121e-09    -8.507    -8.506     0.002     (0)  
   HF2-            5.960e-13   5.242e-13   -12.225   -12.280    -0.056     (0)  
   H2F2            2.593e-17   2.602e-17   -16.586   -16.585     0.002     (0)  
H(0)          3.255e-26
   H2              1.627e-26   1.633e-26   -25.789   -25.787     0.002     (0)  
K             3.634e-04
   K+              3.601e-04   3.169e-04    -3.444    -3.499    -0.055     (0)  
   KSO4-           3.366e-06   2.985e-06    -5.473    -5.525    -0.052     (0)  
Mg            1.046e-03
   Mg+2            8.492e-04   5.300e-04    -3.071    -3.276    -0.205     (0)  
   MgSO4           1.650e-04   1.656e-04    -3.783    -3.781     0.002     (0)  
   MgHCO3+         2.771e-05   2.443e-05    -4.557    -4.612    -0.055     (0)  
   MgCO3           1.903e-06   1.910e-06    -5.721    -5.719     0.002     (0)  
   MgF+            1.723e-06   1.522e-06    -5.764    -5.818    -0.054     (0)  
   MgOH+           4.236e-08   3.773e-08    -7.373    -7.423    -0.050     (0)  
Na            2.220e-04
   Na+             2.201e-04   1.946e-04    -3.657    -3.711    -0.054     (0)  
   NaSO4-          1.486e-06   1.318e-06    -5.828    -5.880    -0.052     (0)  
   NaHCO3          4.308e-07   4.323e-07    -6.366    -6.364     0.002     (0)  
   NaCO3-          1.505e-08   1.335e-08    -7.822    -7.875    -0.052     (0)  
   NaF             4.911e-09   4.929e-09    -8.309    -8.307     0.002     (0)  
O(0)          0.000e+00
   O2              0.000e+00   0.000e+00   -41.034   -41.033     0.002     (0)  
S(6)          2.948e-03
   SO4-2           2.212e-03   1.357e-03    -2.655    -2.867    -0.212     (0)  
   CaSO4           5.669e-04   5.689e-04    -3.247    -3.245     0.002     (0)  
   MgSO4           1.650e-04   1.656e-04    -3.783    -3.781     0.002     (0)  
   KSO4-           3.366e-06   2.985e-06    -5.473    -5.525    -0.052     (0)  
   NaSO4-          1.486e-06   1.318e-06    -5.828    -5.880    -0.052     (0)  
   HSO4-           7.040e-09   6.220e-09    -8.152    -8.206    -0.054     (0)  
   CaHSO4+         1.792e-10   1.581e-10    -9.747    -9.801    -0.054     (0)  

------------------------------Saturation indices-------------------------------

  Phase               SI** log IAP   log K(297 K,   1 atm)

  Anhydrite        -1.18     -5.54   -4.36  CaSO4
  Aragonite         0.24     -8.09   -8.33  CaCO3
  Artinite         -6.98      2.67    9.65  MgCO3:Mg(OH)2:3H2O
  Brucite          -5.52     11.36   16.89  Mg(OH)2
  Calcite           0.38     -8.09   -8.48  CaCO3
  CO2(g)           -1.91     -3.37   -1.46  CO2
  Dolomite          0.29    -16.79  -17.07  CaMg(CO3)2
  Dolomite(d)      -0.27    -16.79  -16.52  CaMg(CO3)2
  Epsomite         -4.00     -6.14   -2.14  MgSO4:7H2O
  Fluorite         -0.78    -11.39  -10.61  CaF2
  Gypsum           -0.96     -5.54   -4.58  CaSO4:2H2O
  H2(g)           -22.64    -25.79   -3.15  H2
  H2O(g)           -1.53     -0.00    1.53  H2O
  Halite           -9.38     -7.80    1.58  NaCl
  Huntite          -4.25    -34.17  -29.92  CaMg3(CO3)4
  Hydromagnesite  -14.74    -23.41   -8.67  Mg5(CO3)4(OH)2:4H2O
  Magnesite        -0.68     -8.69   -8.02  MgCO3
  Mirabilite       -9.14    -10.29   -1.15  Na2SO4:10H2O
  Nahcolite        -5.56     -6.11   -0.55  NaHCO3
  Natron          -11.50    -12.84   -1.34  Na2CO3:10H2O
  Nesquehonite     -3.08     -8.69   -5.61  MgCO3:3H2O
  O2(g)           -38.15    -41.03   -2.89  O2
  Portlandite     -10.89     11.97   22.85  Ca(OH)2
  Thenardite      -10.11    -10.29   -0.18  Na2SO4
  Thermonatrite   -12.97    -12.84    0.13  Na2CO3:H2O
  Trona           -18.19    -18.95   -0.76  NaHCO3:Na2CO3:2H2O

**For a gas, SI = log10(fugacity). Fugacity = pressure * phi / 1 atm.
  For ideal gases, phi = 1.

Initial solution 2.	

-----------------------------Solution composition------------------------------

	Elements           Molality       Moles

	C(4)              5.183e-03   5.183e-03
	Ca                4.195e-03   4.195e-03
	Cl                9.880e-05   9.880e-05
	F                 5.795e-05   5.795e-05
	K                 3.788e-04   3.788e-04
	Mg                1.153e-03   1.153e-03
	Na                1.698e-04   1.698e-04
	S(6)              3.032e-03   3.032e-03

----------------------------Description of solution----------------------------

                                       pH  =   7.230    
                                       pe  =   4.000    
                        Activity of water  =   1.000
                 Ionic strength (mol/kgw)  =   1.602e-02
                       Mass of water (kg)  =   1.000e+00
                 Total alkalinity (eq/kg)  =   4.674e-03
                       Total CO2 (mol/kg)  =   5.183e-03
                         Temperature (°C)  =  24.60
                  Electrical balance (eq)  =   3.496e-04
 Percent error, 100*(Cat-|An|)/(Cat+|An|)  =   1.87
                               Iterations  =   7 (14 overall)
                                  Total H  = 1.110171e+02
                                  Total O  = 5.553337e+01

----------------------------Distribution of species----------------------------

                                               Log       Log       Log    mole V
   Species          Molality    Activity  Molality  Activity     Gamma    cm³/mol

   OH-             1.877e-07   1.649e-07    -6.726    -6.783    -0.056     (0)  
   H+              6.561e-08   5.888e-08    -7.183    -7.230    -0.047      0.00
   H2O             5.551e+01   9.998e-01     1.744    -0.000     0.000     18.07
C(4)          5.183e-03
   HCO3-           4.486e-03   3.973e-03    -2.348    -2.401    -0.053     (0)  
   CO2             5.269e-04   5.288e-04    -3.278    -3.277     0.002     (0)  
   CaHCO3+         1.214e-04   1.078e-04    -3.916    -3.968    -0.052     (0)  
   MgHCO3+         3.056e-05   2.691e-05    -4.515    -4.570    -0.055     (0)  
   CaCO3           1.112e-05   1.116e-05    -4.954    -4.952     0.002     (0)  
   CO3-2           5.100e-06   3.139e-06    -5.292    -5.503    -0.211     (0)  
   MgCO3           1.720e-06   1.726e-06    -5.765    -5.763     0.002     (0)  
   NaHCO3          3.307e-07   3.320e-07    -6.481    -6.479     0.002     (0)  
   NaCO3-          9.608e-09   8.510e-09    -8.017    -8.070    -0.053     (0)  
Ca            4.195e-03
   Ca+2            3.477e-03   2.139e-03    -2.459    -2.670    -0.211     (0)  
   CaSO4           5.841e-04   5.863e-04    -3.233    -3.232     0.002     (0)  
   CaHCO3+         1.214e-04   1.078e-04    -3.916    -3.968    -0.052     (0)  
   CaCO3           1.112e-05   1.116e-05    -4.954    -4.952     0.002     (0)  
   CaF+            1.004e-06   8.895e-07    -5.998    -6.051    -0.053     (0)  
   CaOH+           6.789e-09   6.028e-09    -8.168    -8.220    -0.052     (0)  
   CaHSO4+         2.283e-10   2.012e-10    -9.641    -9.696    -0.055     (0)  
Cl            9.880e-05
   Cl-             9.880e-05   8.684e-05    -4.005    -4.061    -0.056     (0)  
F             5.795e-05
   F-              5.486e-05   4.819e-05    -4.261    -4.317    -0.056     (0)  
   MgF+            2.077e-06   1.833e-06    -5.683    -5.737    -0.054     (0)  
   CaF+            1.004e-06   8.895e-07    -5.998    -6.051    -0.053     (0)  
   HF              4.209e-09   4.225e-09    -8.376    -8.374     0.002     (0)  
   NaF             4.104e-09   4.120e-09    -8.387    -8.385     0.002     (0)  
   HF2-            8.865e-13   7.787e-13   -12.052   -12.109    -0.056     (0)  
   H2F2            4.702e-17   4.719e-17   -16.328   -16.326     0.002     (0)  
H(0)          4.911e-26
   H2              2.455e-26   2.465e-26   -25.610   -25.608     0.002     (0)  
K             3.788e-04
   K+              3.752e-04   3.298e-04    -3.426    -3.482    -0.056     (0)  
   KSO4-           3.582e-06   3.172e-06    -5.446    -5.499    -0.053     (0)  
Mg            1.153e-03
   Mg+2            9.335e-04   5.798e-04    -3.030    -3.237    -0.207     (0)  
   MgSO4           1.848e-04   1.855e-04    -3.733    -3.732     0.002     (0)  
   MgHCO3+         3.056e-05   2.691e-05    -4.515    -4.570    -0.055     (0)  
   MgF+            2.077e-06   1.833e-06    -5.683    -5.737    -0.054     (0)  
   MgCO3           1.720e-06   1.726e-06    -5.765    -5.763     0.002     (0)  
   MgOH+           3.875e-08   3.447e-08    -7.412    -7.463    -0.051     (0)  
Na            1.698e-04
   Na+             1.683e-04   1.486e-04    -3.774    -3.828    -0.054     (0)  
   NaSO4-          1.156e-06   1.024e-06    -5.937    -5.990    -0.053     (0)  
   NaHCO3          3.307e-07   3.320e-07    -6.481    -6.479     0.002     (0)  
   NaCO3-          9.608e-09   8.510e-09    -8.017    -8.070    -0.053     (0)  
   NaF             4.104e-09   4.120e-09    -8.387    -8.385     0.002     (0)  
O(0)          0.000e+00
   O2              0.000e+00   0.000e+00   -41.295   -41.293     0.002     (0)  
S(6)          3.032e-03
   SO4-2           2.258e-03   1.379e-03    -2.646    -2.861    -0.214     (0)  
   CaSO4           5.841e-04   5.863e-04    -3.233    -3.232     0.002     (0)  
   MgSO4           1.848e-04   1.855e-04    -3.733    -3.732     0.002     (0)  
   KSO4-           3.582e-06   3.172e-06    -5.446    -5.499    -0.053     (0)  
   NaSO4-          1.156e-06   1.024e-06    -5.937    -5.990    -0.053     (0)  
   HSO4-           8.867e-09   7.824e-09    -8.052    -8.107    -0.054     (0)  
   CaHSO4+         2.283e-10   2.012e-10    -9.641    -9.696    -0.055     (0)  

------------------------------Saturation indices-------------------------------

  Phase               SI** log IAP   log K(297 K,   1 atm)

  Anhydrite        -1.17     -5.53   -4.36  CaSO4
  Aragonite         0.16     -8.17   -8.33  CaCO3
  Artinite         -7.15      2.48    9.63  MgCO3:Mg(OH)2:3H2O
  Brucite          -5.64     11.22   16.87  Mg(OH)2
  Calcite           0.30     -8.17   -8.48  CaCO3
  CO2(g)           -1.81     -3.28   -1.46  CO2
  Dolomite          0.17    -16.91  -17.08  CaMg(CO3)2
  Dolomite(d)      -0.38    -16.91  -16.53  CaMg(CO3)2
  Epsomite         -3.96     -6.10   -2.14  MgSO4:7H2O
  Fluorite         -0.70    -11.30  -10.60  CaF2
  Gypsum           -0.95     -5.53   -4.58  CaSO4:2H2O
  H2(g)           -22.46    -25.61   -3.15  H2
  H2O(g)           -1.52     -0.00    1.52  H2O
  Halite           -9.47     -7.89    1.58  NaCl
  Huntite          -4.45    -34.39  -29.94  CaMg3(CO3)4
  Hydromagnesite  -15.03    -23.74   -8.71  Mg5(CO3)4(OH)2:4H2O
  Magnesite        -0.72     -8.74   -8.02  MgCO3
  Mirabilite       -9.38    -10.52   -1.13  Na2SO4:10H2O
  Nahcolite        -5.68     -6.23   -0.55  NaHCO3
  Natron          -11.83    -13.16   -1.33  Na2CO3:10H2O
  Nesquehonite     -3.12     -8.74   -5.62  MgCO3:3H2O
  O2(g)           -38.40    -41.29   -2.89  O2
  Portlandite     -11.04     11.79   22.83  Ca(OH)2
  Thenardite      -10.34    -10.52   -0.18  Na2SO4
  Thermonatrite   -13.29    -13.16    0.13  Na2CO3:H2O
  Trona           -18.61    -19.39   -0.78  NaHCO3:Na2CO3:2H2O

**For a gas, SI = log10(fugacity). Fugacity = pressure * phi / 1 atm.
  For ideal gases, phi = 1.

Initial solution 3.	

-----------------------------Solution composition------------------------------

	Elements           Molality       Moles

	C(4)              5.167e-03   5.167e-03
	Ca                4.220e-03   4.220e-03
	Cl                1.637e-04   1.637e-04
	F                 5.795e-05   5.795e-05
	K                 3.660e-04   3.660e-04
	Mg                1.079e-03   1.079e-03
	Na                1.698e-04   1.698e-04
	S(6)              3.084e-03   3.084e-03

----------------------------Description of solution----------------------------

                                       pH  =   7.200    
                                       pe  =   4.000    
                        Activity of water  =   1.000
                 Ionic strength (mol/kgw)  =   1.601e-02
                       Mass of water (kg)  =   1.000e+00
                 Total alkalinity (eq/kg)  =   4.625e-03
                       Total CO2 (mol/kg)  =   5.167e-03
                         Temperature (°C)  =  24.70
                  Electrical balance (eq)  =   1.187e-04
 Percent error, 100*(Cat-|An|)/(Cat+|An|)  =   0.64
                               Iterations  =   7 (21 overall)
                                  Total H  = 1.110170e+02
                                  Total O  = 5.553349e+01

----------------------------Distribution of species----------------------------

                                               Log       Log       Log    mole V
   Species          Molality    Activity  Molality  Activity     Gamma    cm³/mol

   OH-             1.765e-07   1.551e-07    -6.753    -6.809    -0.056     (0)  
   H+              7.030e-08   6.310e-08    -7.153    -7.200    -0.047      0.00
   H2O             5.551e+01   9.998e-01     1.744    -0.000     0.000     18.07
C(4)          5.167e-03
   HCO3-           4.442e-03   3.935e-03    -2.352    -2.405    -0.053     (0)  
   CO2             5.584e-04   5.604e-04    -3.253    -3.251     0.002     (0)  
   CaHCO3+         1.208e-04   1.072e-04    -3.918    -3.970    -0.052     (0)  
   MgHCO3+         2.824e-05   2.486e-05    -4.549    -4.604    -0.055     (0)  
   CaCO3           1.035e-05   1.039e-05    -4.985    -4.983     0.002     (0)  
   CO3-2           4.722e-06   2.907e-06    -5.326    -5.537    -0.211     (0)  
   MgCO3           1.488e-06   1.493e-06    -5.828    -5.826     0.002     (0)  
   NaHCO3          3.275e-07   3.287e-07    -6.485    -6.483     0.002     (0)  
   NaCO3-          8.942e-09   7.920e-09    -8.049    -8.101    -0.053     (0)  
Ca            4.220e-03
   Ca+2            3.489e-03   2.147e-03    -2.457    -2.668    -0.211     (0)  
   CaSO4           5.987e-04   6.009e-04    -3.223    -3.221     0.002     (0)  
   CaHCO3+         1.208e-04   1.072e-04    -3.918    -3.970    -0.052     (0)  
   CaCO3           1.035e-05   1.039e-05    -4.985    -4.983     0.002     (0)  
   CaF+            1.012e-06   8.966e-07    -5.995    -6.047    -0.053     (0)  
   CaOH+           6.357e-09   5.645e-09    -8.197    -8.248    -0.052     (0)  
   CaHSO4+         2.510e-10   2.213e-10    -9.600    -9.655    -0.055     (0)  
Cl            1.637e-04
   Cl-             1.637e-04   1.439e-04    -3.786    -3.842    -0.056     (0)  
F             5.795e-05
   F-              5.498e-05   4.830e-05    -4.260    -4.316    -0.056     (0)  
   MgF+            1.945e-06   1.716e-06    -5.711    -5.765    -0.054     (0)  
   CaF+            1.012e-06   8.966e-07    -5.995    -6.047    -0.053     (0)  
   HF              4.529e-09   4.545e-09    -8.344    -8.342     0.002     (0)  
   NaF             4.113e-09   4.128e-09    -8.386    -8.384     0.002     (0)  
   HF2-            9.567e-13   8.404e-13   -12.019   -12.076    -0.056     (0)  
   H2F2            5.423e-17   5.443e-17   -16.266   -16.264     0.002     (0)  
H(0)          5.633e-26
   H2              2.816e-26   2.827e-26   -25.550   -25.549     0.002     (0)  
K             3.660e-04
   K+              3.625e-04   3.186e-04    -3.441    -3.497    -0.056     (0)  
   KSO4-           3.537e-06   3.133e-06    -5.451    -5.504    -0.053     (0)  
Mg            1.079e-03
   Mg+2            8.705e-04   5.407e-04    -3.060    -3.267    -0.207     (0)  
   MgSO4           1.763e-04   1.770e-04    -3.754    -3.752     0.002     (0)  
   MgHCO3+         2.824e-05   2.486e-05    -4.549    -4.604    -0.055     (0)  
   MgF+            1.945e-06   1.716e-06    -5.711    -5.765    -0.054     (0)  
   MgCO3           1.488e-06   1.493e-06    -5.828    -5.826     0.002     (0)  
   MgOH+           3.403e-08   3.028e-08    -7.468    -7.519    -0.051     (0)  
Na            1.698e-04
   Na+             1.683e-04   1.486e-04    -3.774    -3.828    -0.054     (0)  
   NaSO4-          1.180e-06   1.045e-06    -5.928    -5.981    -0.053     (0)  
   NaHCO3          3.275e-07   3.287e-07    -6.485    -6.483     0.002     (0)  
   NaCO3-          8.942e-09   7.920e-09    -8.049    -8.101    -0.053     (0)  
   NaF             4.113e-09   4.128e-09    -8.386    -8.384     0.002     (0)  
O(0)          0.000e+00
   O2              0.000e+00   0.000e+00   -41.381   -41.380     0.002     (0)  
S(6)          3.084e-03
   SO4-2           2.304e-03   1.407e-03    -2.637    -2.852    -0.214     (0)  
   CaSO4           5.987e-04   6.009e-04    -3.223    -3.221     0.002     (0)  
   MgSO4           1.763e-04   1.770e-04    -3.754    -3.752     0.002     (0)  
   KSO4-           3.537e-06   3.133e-06    -5.451    -5.504    -0.053     (0)  
   NaSO4-          1.180e-06   1.045e-06    -5.928    -5.981    -0.053     (0)  
   HSO4-           9.717e-09   8.574e-09    -8.012    -8.067    -0.054     (0)  
   CaHSO4+         2.510e-10   2.213e-10    -9.600    -9.655    -0.055     (0)  

------------------------------Saturation indices-------------------------------

  Phase               SI** log IAP   log K(297 K,   1 atm)

  Anhydrite        -1.16     -5.52   -4.36  CaSO4
  Aragonite         0.13     -8.20   -8.33  CaCO3
  Artinite         -7.29      2.33    9.62  MgCO3:Mg(OH)2:3H2O
  Brucite          -5.73     11.13   16.86  Mg(OH)2
  Calcite           0.27     -8.20   -8.48  CaCO3
  CO2(g)           -1.79     -3.25   -1.46  CO2
  Dolomite          0.07    -17.01  -17.08  CaMg(CO3)2
  Dolomite(d)      -0.48    -17.01  -16.53  CaMg(CO3)2
  Epsomite         -3.98     -6.12   -2.14  MgSO4:7H2O
  Fluorite         -0.70    -11.30  -10.60  CaF2
  Gypsum           -0.94     -5.52   -4.58  CaSO4:2H2O
  H2(g)           -22.40    -25.55   -3.15  H2
  H2O(g)           -1.52     -0.00    1.52  H2O
  Halite           -9.25     -7.67    1.58  NaCl
  Huntite          -4.67    -34.62  -29.95  CaMg3(CO3)4
  Hydromagnesite  -15.36    -24.08   -8.72  Mg5(CO3)4(OH)2:4H2O
  Magnesite        -0.78     -8.80   -8.02  MgCO3
  Mirabilite       -9.38    -10.51   -1.13  Na2SO4:10H2O
  Nahcolite        -5.68     -6.23   -0.55  NaHCO3
  Natron          -11.87    -13.19   -1.32  Na2CO3:10H2O
  Nesquehonite     -3.19     -8.80   -5.62  MgCO3:3H2O
  O2(g)           -38.49    -41.38   -2.89  O2
  Portlandite     -11.09     11.73   22.82  Ca(OH)2
  Thenardite      -10.33    -10.51   -0.18  Na2SO4
  Thermonatrite   -13.32    -13.19    0.13  Na2CO3:H2O
  Trona           -18.64    -19.43   -0.78  NaHCO3:Na2CO3:2H2O

**For a gas, SI = log10(fugacity). Fugacity = pressure * phi / 1 atm.
  For ideal gases, phi = 1.

Initial solution 4.	

-----------------------------Solution composition------------------------------

	Elements           Molality       Moles

	C(4)              5.084e-03   5.084e-03
	Ca                4.195e-03   4.195e-03
	Cl                9.033e-05   9.033e-05
	F                 5.795e-05   5.795e-05
	K                 3.634e-04   3.634e-04
	Mg                1.070e-03   1.070e-03
	Na                1.480e-04   1.480e-04
	S(6)              2.948e-03   2.948e-03

----------------------------Description of solution----------------------------

                                       pH  =   7.240    
                                       pe  =   4.000    
                        Activity of water  =   1.000
                 Ionic strength (mol/kgw)  =   1.574e-02
                       Mass of water (kg)  =   1.000e+00
                 Total alkalinity (eq/kg)  =   4.594e-03
                       Total CO2 (mol/kg)  =   5.084e-03
                         Temperature (°C)  =  24.30
                  Electrical balance (eq)  =   4.032e-04
 Percent error, 100*(Cat-|An|)/(Cat+|An|)  =   2.20
                               Iterations  =   7 (28 overall)
                                  Total H  = 1.110170e+02
                                  Total O  = 5.553276e+01

----------------------------Distribution of species----------------------------

                                               Log       Log       Log    mole V
   Species          Molality    Activity  Molality  Activity     Gamma    cm³/mol

   OH-             1.876e-07   1.649e-07    -6.727    -6.783    -0.056     (0)  
   H+              6.407e-08   5.754e-08    -7.193    -7.240    -0.047      0.00
   H2O             5.551e+01   9.998e-01     1.744    -0.000     0.000     18.07
C(4)          5.084e-03
   HCO3-           4.410e-03   3.910e-03    -2.356    -2.408    -0.052     (0)  
   CO2             5.086e-04   5.104e-04    -3.294    -3.292     0.002     (0)  
   CaHCO3+         1.196e-04   1.063e-04    -3.922    -3.974    -0.051     (0)  
   MgHCO3+         2.809e-05   2.475e-05    -4.552    -4.606    -0.055     (0)  
   CaCO3           1.114e-05   1.118e-05    -4.953    -4.951     0.002     (0)  
   CO3-2           5.085e-06   3.141e-06    -5.294    -5.503    -0.209     (0)  
   MgCO3           1.604e-06   1.609e-06    -5.795    -5.793     0.002     (0)  
   NaHCO3          2.841e-07   2.851e-07    -6.547    -6.545     0.002     (0)  
   NaCO3-          8.258e-09   7.321e-09    -8.083    -8.135    -0.052     (0)  
Ca            4.195e-03
   Ca+2            3.489e-03   2.154e-03    -2.457    -2.667    -0.209     (0)  
   CaSO4           5.742e-04   5.763e-04    -3.241    -3.239     0.002     (0)  
   CaHCO3+         1.196e-04   1.063e-04    -3.922    -3.974    -0.051     (0)  
   CaCO3           1.114e-05   1.118e-05    -4.953    -4.951     0.002     (0)  
   CaF+            1.006e-06   8.926e-07    -5.997    -6.049    -0.052     (0)  
   CaOH+           6.990e-09   6.212e-09    -8.156    -8.207    -0.051     (0)  
   CaHSO4+         2.183e-10   1.926e-10    -9.661    -9.715    -0.054     (0)  
Cl            9.033e-05
   Cl-             9.033e-05   7.947e-05    -4.044    -4.100    -0.056     (0)  
F             5.795e-05
   F-              5.499e-05   4.836e-05    -4.260    -4.316    -0.056     (0)  
   MgF+            1.938e-06   1.712e-06    -5.713    -5.767    -0.054     (0)  
   CaF+            1.006e-06   8.926e-07    -5.997    -6.049    -0.052     (0)  
   HF              4.106e-09   4.121e-09    -8.387    -8.385     0.002     (0)  
   NaF             3.595e-09   3.608e-09    -8.444    -8.443     0.002     (0)  
   HF2-            8.648e-13   7.604e-13   -12.063   -12.119    -0.056     (0)  
   H2F2            4.522e-17   4.539e-17   -16.345   -16.343     0.002     (0)  
H(0)          4.704e-26
   H2              2.352e-26   2.361e-26   -25.629   -25.627     0.002     (0)  
K             3.634e-04
   K+              3.601e-04   3.168e-04    -3.444    -3.499    -0.056     (0)  
   KSO4-           3.347e-06   2.967e-06    -5.475    -5.528    -0.052     (0)  
Mg            1.070e-03
   Mg+2            8.706e-04   5.427e-04    -3.060    -3.265    -0.205     (0)  
   MgSO4           1.680e-04   1.686e-04    -3.775    -3.773     0.002     (0)  
   MgHCO3+         2.809e-05   2.475e-05    -4.552    -4.606    -0.055     (0)  
   MgF+            1.938e-06   1.712e-06    -5.713    -5.767    -0.054     (0)  
   MgCO3           1.604e-06   1.609e-06    -5.795    -5.793     0.002     (0)  
   MgOH+           3.609e-08   3.213e-08    -7.443    -7.493    -0.050     (0)  
Na            1.480e-04
   Na+             1.467e-04   1.297e-04    -3.833    -3.887    -0.054     (0)  
   NaSO4-          9.848e-07   8.731e-07    -6.007    -6.059    -0.052     (0)  
   NaHCO3          2.841e-07   2.851e-07    -6.547    -6.545     0.002     (0)  
   NaCO3-          8.258e-09   7.321e-09    -8.083    -8.135    -0.052     (0)  
   NaF             3.595e-09   3.608e-09    -8.444    -8.443     0.002     (0)  
O(0)          0.000e+00
   O2              0.000e+00   0.000e+00   -41.354   -41.353     0.002     (0)  
S(6)          2.948e-03
   SO4-2           2.202e-03   1.349e-03    -2.657    -2.870    -0.213     (0)  
   CaSO4           5.742e-04   5.763e-04    -3.241    -3.239     0.002     (0)  
   MgSO4           1.680e-04   1.686e-04    -3.775    -3.773     0.002     (0)  
   KSO4-           3.347e-06   2.967e-06    -5.475    -5.528    -0.052     (0)  
   NaSO4-          9.848e-07   8.731e-07    -6.007    -6.059    -0.052     (0)  
   HSO4-           8.419e-09   7.436e-09    -8.075    -8.129    -0.054     (0)  
   CaHSO4+         2.183e-10   1.926e-10    -9.661    -9.715    -0.054     (0)  

------------------------------Saturation indices-------------------------------

  Phase               SI** log IAP   log K(297 K,   1 atm)

  Anhydrite        -1.18     -5.54   -4.36  CaSO4
  Aragonite         0.16     -8.17   -8.33  CaCO3
  Artinite         -7.20      2.45    9.65  MgCO3:Mg(OH)2:3H2O
  Brucite          -5.67     11.21   16.89  Mg(OH)2
  Calcite           0.31     -8.17   -8.48  CaCO3
  CO2(g)           -1.83     -3.29   -1.46  CO2
  Dolomite          0.14    -16.94  -17.07  CaMg(CO3)2
  Dolomite(d)      -0.42    -16.94  -16.52  CaMg(CO3)2
  Epsomite         -3.99     -6.14   -2.14  MgSO4:7H2O
  Fluorite         -0.69    -11.30  -10.61  CaF2
  Gypsum           -0.96     -5.54   -4.58  CaSO4:2H2O
  H2(g)           -22.48    -25.63   -3.15  H2
  H2O(g)           -1.53     -0.00    1.53  H2O
  Halite           -9.57     -7.99    1.58  NaCl
  Huntite          -4.55    -34.47  -29.92  CaMg3(CO3)4
  Hydromagnesite  -15.19    -23.86   -8.67  Mg5(CO3)4(OH)2:4H2O
  Magnesite        -0.75     -8.77   -8.02  MgCO3
  Mirabilite       -9.50    -10.65   -1.15  Na2SO4:10H2O
  Nahcolite        -5.74     -6.30   -0.55  NaHCO3
  Natron          -11.94    -13.28   -1.34  Na2CO3:10H2O
  Nesquehonite     -3.16     -8.77   -5.61  MgCO3:3H2O
  O2(g)           -38.47    -41.35   -2.89  O2
  Portlandite     -11.04     11.81   22.85  Ca(OH)2
  Thenardite      -10.47    -10.64   -0.18  Na2SO4
  Thermonatrite   -13.41    -13.28    0.13  Na2CO3:H2O
  Trona           -18.81    -19.57   -0.76  NaHCO3:Na2CO3:2H2O

**For a gas, SI = log10(fugacity). Fugacity = pressure * phi / 1 atm.
  For ideal gases, phi = 1.

Initial solution 5.	

-----------------------------Solution composition------------------------------

	Elements           Molality       Moles

	C(4)              5.150e-03   5.150e-03
	Ca                4.195e-03   4.195e-03
	Cl                9.880e-05   9.880e-05
	F                 6.321e-05   6.321e-05
	K                 3.302e-04   3.302e-04
	Mg                1.079e-03   1.079e-03
	Na                1.219e-04   1.219e-04
	S(6)              3.000e-03   3.000e-03

----------------------------Description of solution----------------------------

                                       pH  =   7.430    
                                       pe  =   4.000    
                        Activity of water  =   1.000
                 Ionic strength (mol/kgw)  =   1.591e-02
                       Mass of water (kg)  =   1.000e+00
                 Total alkalinity (eq/kg)  =   4.831e-03
                       Total CO2 (mol/kg)  =   5.150e-03
                         Temperature (°C)  =  23.60
                  Electrical balance (eq)  =   4.825e-06
 Percent error, 100*(Cat-|An|)/(Cat+|An|)  =   0.03
                               Iterations  =   6 (34 overall)
                                  Total H  = 1.110172e+02
                                  Total O  = 5.553332e+01

----------------------------Distribution of species----------------------------

                                               Log       Log       Log    mole V
   Species          Molality    Activity  Molality  Activity     Gamma    cm³/mol

   OH-             2.755e-07   2.421e-07    -6.560    -6.616    -0.056     (0)  
   H+              4.138e-08   3.715e-08    -7.383    -7.430    -0.047      0.00
   H2O             5.551e+01   9.998e-01     1.744    -0.000     0.000     18.06
C(4)          5.150e-03
   HCO3-           4.622e-03   4.096e-03    -2.335    -2.388    -0.052     (0)  
   CO2             3.471e-04   3.484e-04    -3.460    -3.458     0.002     (0)  
   CaHCO3+         1.232e-04   1.095e-04    -3.909    -3.961    -0.051     (0)  
   MgHCO3+         2.947e-05   2.596e-05    -4.531    -4.586    -0.055     (0)  
   CaCO3           1.748e-05   1.754e-05    -4.757    -4.756     0.002     (0)  
   CO3-2           8.144e-06   5.024e-06    -5.089    -5.299    -0.210     (0)  
   MgCO3           2.547e-06   2.557e-06    -5.594    -5.592     0.002     (0)  
   NaHCO3          2.449e-07   2.458e-07    -6.611    -6.609     0.002     (0)  
   NaCO3-          1.049e-08   9.299e-09    -7.979    -8.032    -0.052     (0)  
Ca            4.195e-03
   Ca+2            3.475e-03   2.142e-03    -2.459    -2.669    -0.210     (0)  
   CaSO4           5.785e-04   5.806e-04    -3.238    -3.236     0.002     (0)  
   CaHCO3+         1.232e-04   1.095e-04    -3.909    -3.961    -0.051     (0)  
   CaCO3           1.748e-05   1.754e-05    -4.757    -4.756     0.002     (0)  
   CaF+            1.075e-06   9.528e-07    -5.969    -6.021    -0.052     (0)  
   CaOH+           1.077e-08   9.567e-09    -7.968    -8.019    -0.051     (0)  
   CaHSO4+         1.408e-10   1.242e-10    -9.851    -9.906    -0.055     (0)  
Cl            9.880e-05
   Cl-             9.880e-05   8.689e-05    -4.005    -4.061    -0.056     (0)  
F             6.321e-05
   F-              6.004e-05   5.277e-05    -4.222    -4.278    -0.056     (0)  
   MgF+            2.098e-06   1.852e-06    -5.678    -5.732    -0.054     (0)  
   CaF+            1.075e-06   9.528e-07    -5.969    -6.021    -0.052     (0)  
   NaF             3.229e-09   3.240e-09    -8.491    -8.489     0.002     (0)  
   HF              2.857e-09   2.867e-09    -8.544    -8.543     0.002     (0)  
   HF2-            6.532e-13   5.741e-13   -12.185   -12.241    -0.056     (0)  
   H2F2            2.245e-17   2.253e-17   -16.649   -16.647     0.002     (0)  
H(0)          1.975e-26
   H2              9.874e-27   9.910e-27   -26.006   -26.004     0.002     (0)  
K             3.302e-04
   K+              3.271e-04   2.877e-04    -3.485    -3.541    -0.056     (0)  
   KSO4-           3.063e-06   2.714e-06    -5.514    -5.566    -0.052     (0)  
Mg            1.079e-03
   Mg+2            8.754e-04   5.449e-04    -3.058    -3.264    -0.206     (0)  
   MgSO4           1.689e-04   1.695e-04    -3.772    -3.771     0.002     (0)  
   MgHCO3+         2.947e-05   2.596e-05    -4.531    -4.586    -0.055     (0)  
   MgCO3           2.547e-06   2.557e-06    -5.594    -5.592     0.002     (0)  
   MgF+            2.098e-06   1.852e-06    -5.678    -5.732    -0.054     (0)  
   MgOH+           5.268e-08   4.689e-08    -7.278    -7.329    -0.051     (0)  
Na            1.219e-04
   Na+             1.208e-04   1.067e-04    -3.918    -3.972    -0.054     (0)  
   NaSO4-          8.232e-07   7.296e-07    -6.084    -6.137    -0.052     (0)  
   NaHCO3          2.449e-07   2.458e-07    -6.611    -6.609     0.002     (0)  
   NaCO3-          1.049e-08   9.299e-09    -7.979    -8.032    -0.052     (0)  
   NaF             3.229e-09   3.240e-09    -8.491    -8.489     0.002     (0)  
O(0)          0.000e+00
   O2              0.000e+00   0.000e+00   -40.828   -40.826     0.002     (0)  
S(6)          3.000e-03
   SO4-2           2.249e-03   1.376e-03    -2.648    -2.861    -0.213     (0)  
   CaSO4           5.785e-04   5.806e-04    -3.238    -3.236     0.002     (0)  
   MgSO4           1.689e-04   1.695e-04    -3.772    -3.771     0.002     (0)  
   KSO4-           3.063e-06   2.714e-06    -5.514    -5.566    -0.052     (0)  
   NaSO4-          8.232e-07   7.296e-07    -6.084    -6.137    -0.052     (0)  
   HSO4-           5.462e-09   4.823e-09    -8.263    -8.317    -0.054     (0)  
   CaHSO4+         1.408e-10   1.242e-10    -9.851    -9.906    -0.055     (0)  

------------------------------Saturation indices-------------------------------

  Phase               SI** log IAP   log K(296 K,   1 atm)

  Anhydrite        -1.18     -5.53   -4.36  CaSO4
  Aragonite         0.36     -7.97   -8.33  CaCO3
  Artinite         -6.67      3.03    9.70  MgCO3:Mg(OH)2:3H2O
  Brucite          -5.34     11.60   16.93  Mg(OH)2
  Calcite           0.50     -7.97   -8.47  CaCO3
  CO2(g)           -2.01     -3.46   -1.45  CO2
  Dolomite          0.53    -16.53  -17.06  CaMg(CO3)2
  Dolomite(d)      -0.03    -16.53  -16.50  CaMg(CO3)2
  Epsomite         -3.98     -6.13   -2.15  MgSO4:7H2O
  Fluorite         -0.61    -11.22  -10.62  CaF2
  Gypsum           -0.95     -5.53   -4.58  CaSO4:2H2O
  H2(g)           -22.86    -26.00   -3.14  H2
  H2O(g)           -1.55     -0.00    1.55  H2O
  Halite           -9.61     -8.03    1.58  NaCl
  Huntite          -3.78    -33.66  -29.88  CaMg3(CO3)4
  Hydromagnesite  -14.07    -22.65   -8.58  Mg5(CO3)4(OH)2:4H2O
  Magnesite        -0.55     -8.56   -8.01  MgCO3
  Mirabilite       -9.63    -10.81   -1.18  Na2SO4:10H2O
  Nahcolite        -5.80     -6.36   -0.56  NaHCO3
  Natron          -11.88    -13.24   -1.37  Na2CO3:10H2O
  Nesquehonite     -2.96     -8.56   -5.60  MgCO3:3H2O
  O2(g)           -37.94    -40.83   -2.88  O2
  Portlandite     -10.72     12.19   22.91  Ca(OH)2
  Thenardite      -10.63    -10.80   -0.18  Na2SO4
  Thermonatrite   -13.38    -13.24    0.13  Na2CO3:H2O
  Trona           -18.87    -19.60   -0.73  NaHCO3:Na2CO3:2H2O

**For a gas, SI = log10(fugacity). Fugacity = pressure * phi / 1 atm.
  For ideal gases, phi = 1.

Initial solution 6.	

-----------------------------Solution composition------------------------------

	Elements           Molality       Moles

	C(4)              5.117e-03   5.117e-03
	Ca                4.145e-03   4.145e-03
	Cl                9.598e-05   9.598e-05
	F                 6.321e-05   6.321e-05
	K                 3.558e-04   3.558e-04
	Mg                1.054e-03   1.054e-03
	Na                1.524e-04   1.524e-04
	S(6)              2.980e-03   2.980e-03

----------------------------Description of solution----------------------------

                                       pH  =   7.790    
                                       pe  =   4.000    
                        Activity of water  =   1.000
                 Ionic strength (mol/kgw)  =   1.590e-02
                       Mass of water (kg)  =   1.000e+00
                 Total alkalinity (eq/kg)  =   5.018e-03
                       Total CO2 (mol/kg)  =   5.117e-03
                         Temperature (°C)  =  21.40
                  Electrical balance (eq)  =  -2.308e-04
 Percent error, 100*(Cat-|An|)/(Cat+|An|)  =  -1.24
                               Iterations  =   7 (41 overall)
                                  Total H  = 1.110173e+02
                                  Total O  = 5.553333e+01

----------------------------Distribution of species----------------------------

                                               Log       Log       Log    mole V
   Species          Molality    Activity  Molality  Activity     Gamma    cm³/mol

   OH-             5.317e-07   4.676e-07    -6.274    -6.330    -0.056     (0)  
   H+              1.805e-08   1.622e-08    -7.743    -7.790    -0.047      0.00
   H2O             5.551e+01   9.998e-01     1.744    -0.000     0.000     18.05
C(4)          5.117e-03
   HCO3-           4.746e-03   4.208e-03    -2.324    -2.376    -0.052     (0)  
   CO2             1.605e-04   1.610e-04    -3.795    -3.793     0.002     (0)  
   CaHCO3+         1.204e-04   1.070e-04    -3.919    -3.971    -0.051     (0)  
   CaCO3           3.721e-05   3.735e-05    -4.429    -4.428     0.002     (0)  
   MgHCO3+         2.950e-05   2.600e-05    -4.530    -4.585    -0.055     (0)  
   CO3-2           1.825e-05   1.128e-05    -4.739    -4.948    -0.209     (0)  
   MgCO3           5.435e-06   5.455e-06    -5.265    -5.263     0.002     (0)  
   NaHCO3          3.146e-07   3.158e-07    -6.502    -6.501     0.002     (0)  
   NaCO3-          2.630e-08   2.332e-08    -7.580    -7.632    -0.052     (0)  
Ca            4.145e-03
   Ca+2            3.424e-03   2.115e-03    -2.465    -2.675    -0.209     (0)  
   CaSO4           5.620e-04   5.641e-04    -3.250    -3.249     0.002     (0)  
   CaHCO3+         1.204e-04   1.070e-04    -3.919    -3.971    -0.051     (0)  
   CaCO3           3.721e-05   3.735e-05    -4.429    -4.428     0.002     (0)  
   CaF+            1.010e-06   8.960e-07    -5.996    -6.048    -0.052     (0)  
   CaOH+           2.435e-08   2.164e-08    -7.614    -7.665    -0.051     (0)  
   CaHSO4+         5.816e-11   5.132e-11   -10.235   -10.290    -0.054     (0)  
Cl            9.598e-05
   Cl-             9.598e-05   8.445e-05    -4.018    -4.073    -0.056     (0)  
F             6.321e-05
   F-              6.021e-05   5.295e-05    -4.220    -4.276    -0.056     (0)  
   MgF+            1.986e-06   1.755e-06    -5.702    -5.756    -0.054     (0)  
   CaF+            1.010e-06   8.960e-07    -5.996    -6.048    -0.052     (0)  
   NaF             4.051e-09   4.066e-09    -8.392    -8.391     0.002     (0)  
   HF              1.203e-09   1.208e-09    -8.920    -8.918     0.002     (0)  
   HF2-            2.709e-13   2.382e-13   -12.567   -12.623    -0.056     (0)  
   H2F2            4.306e-18   4.322e-18   -17.366   -17.364     0.002     (0)  
H(0)          3.848e-27
   H2              1.924e-27   1.931e-27   -26.716   -26.714     0.002     (0)  
K             3.558e-04
   K+              3.526e-04   3.102e-04    -3.453    -3.508    -0.056     (0)  
   KSO4-           3.190e-06   2.829e-06    -5.496    -5.548    -0.052     (0)  
Mg            1.054e-03
   Mg+2            8.593e-04   5.358e-04    -3.066    -3.271    -0.205     (0)  
   MgSO4           1.576e-04   1.581e-04    -3.803    -3.801     0.002     (0)  
   MgHCO3+         2.950e-05   2.600e-05    -4.530    -4.585    -0.055     (0)  
   MgCO3           5.435e-06   5.455e-06    -5.265    -5.263     0.002     (0)  
   MgF+            1.986e-06   1.755e-06    -5.702    -5.756    -0.054     (0)  
   MgOH+           9.691e-08   8.630e-08    -7.014    -7.064    -0.050     (0)  
Na            1.524e-04
   Na+             1.510e-04   1.335e-04    -3.821    -3.875    -0.054     (0)  
   NaSO4-          1.019e-06   9.038e-07    -5.992    -6.044    -0.052     (0)  
   NaHCO3          3.146e-07   3.158e-07    -6.502    -6.501     0.002     (0)  
   NaCO3-          2.630e-08   2.332e-08    -7.580    -7.632    -0.052     (0)  
   NaF             4.051e-09   4.066e-09    -8.392    -8.391     0.002     (0)  
O(0)          0.000e+00
   O2              0.000e+00   0.000e+00   -40.129   -40.128     0.002     (0)  
S(6)          2.980e-03
   SO4-2           2.256e-03   1.383e-03    -2.647    -2.859    -0.212     (0)  
   CaSO4           5.620e-04   5.641e-04    -3.250    -3.249     0.002     (0)  
   MgSO4           1.576e-04   1.581e-04    -3.803    -3.801     0.002     (0)  
   KSO4-           3.190e-06   2.829e-06    -5.496    -5.548    -0.052     (0)  
   NaSO4-          1.019e-06   9.038e-07    -5.992    -6.044    -0.052     (0)  
   HSO4-           2.285e-09   2.018e-09    -8.641    -8.695    -0.054     (0)  
   CaHSO4+         5.816e-11   5.132e-11   -10.235   -10.290    -0.054     (0)  

------------------------------Saturation indices-------------------------------

  Phase               SI** log IAP   log K(294 K,   1 atm)

  Anhydrite        -1.19     -5.53   -4.35  CaSO4
  Aragonite         0.69     -7.62   -8.31  CaCO3
  Artinite         -5.77      4.09    9.86  MgCO3:Mg(OH)2:3H2O
  Brucite          -4.77     12.31   17.08  Mg(OH)2
  Calcite           0.84     -7.62   -8.46  CaCO3
  CO2(g)           -2.37     -3.79   -1.42  CO2
  Dolomite          1.16    -15.84  -17.01  CaMg(CO3)2
  Dolomite(d)       0.60    -15.84  -16.44  CaMg(CO3)2
  Epsomite         -3.97     -6.13   -2.17  MgSO4:7H2O
  Fluorite         -0.58    -11.23  -10.64  CaF2
  Gypsum           -0.95     -5.53   -4.58  CaSO4:2H2O
  H2(g)           -23.58    -26.71   -3.13  H2
  H2O(g)           -1.60     -0.00    1.60  H2O
  Halite           -9.52     -7.95    1.57  NaCl
  Huntite          -2.54    -32.28  -29.74  CaMg3(CO3)4
  Hydromagnesite  -12.27    -20.57   -8.29  Mg5(CO3)4(OH)2:4H2O
  Magnesite        -0.25     -8.22   -7.97  MgCO3
  Mirabilite       -9.33    -10.61   -1.28  Na2SO4:10H2O
  Nahcolite        -5.67     -6.25   -0.58  NaHCO3
  Natron          -11.25    -12.70   -1.45  Na2CO3:10H2O
  Nesquehonite     -2.65     -8.22   -5.57  MgCO3:3H2O
  O2(g)           -37.26    -40.13   -2.87  O2
  Portlandite     -10.17     12.91   23.08  Ca(OH)2
  Thenardite      -10.43    -10.61   -0.17  Na2SO4
  Thermonatrite   -12.85    -12.70    0.15  Na2CO3:H2O
  Trona           -18.31    -18.95   -0.63  NaHCO3:Na2CO3:2H2O

**For a gas, SI = log10(fugacity). Fugacity = pressure * phi / 1 atm.
  For ideal gases, phi = 1.

Initial solution 7.	

-----------------------------Solution composition------------------------------

	Elements           Molality       Moles

	C(4)              5.101e-03   5.101e-03
	Ca                4.095e-03   4.095e-03
	Cl                9.880e-05   9.880e-05
	F                 5.268e-05   5.268e-05
	K                 3.583e-04   3.583e-04
	Mg                1.037e-03   1.037e-03
	Na                1.611e-04   1.611e-04
	S(6)              2.948e-03   2.948e-03

----------------------------Description of solution----------------------------

                                       pH  =   8.060    
                                       pe  =   4.000    
                        Activity of water  =   1.000
                 Ionic strength (mol/kgw)  =   1.576e-02
                       Mass of water (kg)  =   1.000e+00
                 Total alkalinity (eq/kg)  =   5.124e-03
                       Total CO2 (mol/kg)  =   5.101e-03
                         Temperature (°C)  =  20.50
                  Electrical balance (eq)  =  -3.873e-04
 Percent error, 100*(Cat-|An|)/(Cat+|An|)  =  -2.09
                               Iterations  =   7 (48 overall)
                                  Total H  = 1.110173e+02
                                  Total O  = 5.553323e+01

----------------------------Distribution of species----------------------------

                                               Log       Log       Log    mole V
   Species          Molality    Activity  Molality  Activity     Gamma    cm³/mol

   OH-             9.216e-07   8.109e-07    -6.035    -6.091    -0.056     (0)  
   H+              9.691e-09   8.710e-09    -8.014    -8.060    -0.046      0.00
   H2O             5.551e+01   9.998e-01     1.744    -0.000     0.000     18.05
C(4)          5.101e-03
   HCO3-           4.758e-03   4.221e-03    -2.323    -2.375    -0.052     (0)  
   CaHCO3+         1.169e-04   1.040e-04    -3.932    -3.983    -0.051     (0)  
   CO2             8.760e-05   8.792e-05    -4.057    -4.056     0.002     (0)  
   CaCO3           6.606e-05   6.631e-05    -4.180    -4.178     0.002     (0)  
   CO3-2           3.333e-05   2.064e-05    -4.477    -4.685    -0.208     (0)  
   MgHCO3+         2.907e-05   2.563e-05    -4.537    -4.591    -0.055     (0)  
   MgCO3           9.679e-06   9.714e-06    -5.014    -5.013     0.002     (0)  
   NaHCO3          3.338e-07   3.350e-07    -6.476    -6.475     0.002     (0)  
   NaCO3-          4.857e-08   4.309e-08    -7.314    -7.366    -0.052     (0)  
Ca            4.095e-03
   Ca+2            3.364e-03   2.083e-03    -2.473    -2.681    -0.208     (0)  
   CaSO4           5.474e-04   5.494e-04    -3.262    -3.260     0.002     (0)  
   CaHCO3+         1.169e-04   1.040e-04    -3.932    -3.983    -0.051     (0)  
   CaCO3           6.606e-05   6.631e-05    -4.180    -4.178     0.002     (0)  
   CaF+            8.124e-07   7.210e-07    -6.090    -6.142    -0.052     (0)  
   CaOH+           4.462e-08   3.968e-08    -7.351    -7.401    -0.051     (0)  
   CaHSO4+         3.009e-11   2.657e-11   -10.522   -10.576    -0.054     (0)  
Cl            9.880e-05
   Cl-             9.880e-05   8.699e-05    -4.005    -4.061    -0.055     (0)  
F             5.268e-05
   F-              5.025e-05   4.422e-05    -4.299    -4.354    -0.056     (0)  
   MgF+            1.608e-06   1.421e-06    -5.794    -5.847    -0.054     (0)  
   CaF+            8.124e-07   7.210e-07    -6.090    -6.142    -0.052     (0)  
   NaF             3.579e-09   3.592e-09    -8.446    -8.445     0.002     (0)  
   HF              5.311e-10   5.331e-10    -9.275    -9.273     0.002     (0)  
   HF2-            9.901e-14   8.712e-14   -13.004   -13.060    -0.056     (0)  
   H2F2            8.663e-19   8.694e-19   -18.062   -18.061     0.002     (0)  
H(0)          1.120e-27
   H2              5.600e-28   5.620e-28   -27.252   -27.250     0.002     (0)  
K             3.583e-04
   K+              3.552e-04   3.127e-04    -3.450    -3.505    -0.055     (0)  
   KSO4-           3.155e-06   2.799e-06    -5.501    -5.553    -0.052     (0)  
Mg            1.037e-03
   Mg+2            8.455e-04   5.284e-04    -3.073    -3.277    -0.204     (0)  
   MgSO4           1.514e-04   1.519e-04    -3.820    -3.818     0.002     (0)  
   MgHCO3+         2.907e-05   2.563e-05    -4.537    -4.591    -0.055     (0)  
   MgCO3           9.679e-06   9.714e-06    -5.014    -5.013     0.002     (0)  
   MgF+            1.608e-06   1.421e-06    -5.794    -5.847    -0.054     (0)  
   MgOH+           1.636e-07   1.458e-07    -6.786    -6.836    -0.050     (0)  
Na            1.611e-04
   Na+             1.596e-04   1.412e-04    -3.797    -3.850    -0.053     (0)  
   NaSO4-          1.069e-06   9.483e-07    -5.971    -6.023    -0.052     (0)  
   NaHCO3          3.338e-07   3.350e-07    -6.476    -6.475     0.002     (0)  
   NaCO3-          4.857e-08   4.309e-08    -7.314    -7.366    -0.052     (0)  
   NaF             3.579e-09   3.592e-09    -8.446    -8.445     0.002     (0)  
O(0)          8.815e-40
   O2              4.408e-40   4.424e-40   -39.356   -39.354     0.002     (0)  
S(6)          2.948e-03
   SO4-2           2.245e-03   1.380e-03    -2.649    -2.860    -0.211     (0)  
   CaSO4           5.474e-04   5.494e-04    -3.262    -3.260     0.002     (0)  
   MgSO4           1.514e-04   1.519e-04    -3.820    -3.818     0.002     (0)  
   KSO4-           3.155e-06   2.799e-06    -5.501    -5.553    -0.052     (0)  
   NaSO4-          1.069e-06   9.483e-07    -5.971    -6.023    -0.052     (0)  
   HSO4-           1.201e-09   1.061e-09    -8.921    -8.974    -0.054     (0)  
   CaHSO4+         3.009e-11   2.657e-11   -10.522   -10.576    -0.054     (0)  

------------------------------Saturation indices-------------------------------

  Phase               SI** log IAP   log K(293 K,   1 atm)

  Anhydrite        -1.20     -5.54   -4.35  CaSO4
  Aragonite         0.94     -7.37   -8.31  CaCO3
  Artinite         -5.04      4.88    9.92  MgCO3:Mg(OH)2:3H2O
  Brucite          -4.30     12.84   17.14  Mg(OH)2
  Calcite           1.09     -7.37   -8.46  CaCO3
  CO2(g)           -2.64     -4.06   -1.41  CO2
  Dolomite          1.66    -15.33  -16.98  CaMg(CO3)2
  Dolomite(d)       1.09    -15.33  -16.42  CaMg(CO3)2
  Epsomite         -3.97     -6.14   -2.17  MgSO4:7H2O
  Fluorite         -0.74    -11.39  -10.65  CaF2
  Gypsum           -0.96     -5.54   -4.58  CaSO4:2H2O
  H2(g)           -24.12    -27.25   -3.13  H2
  H2O(g)           -1.63     -0.00    1.63  H2O
  Halite           -9.48     -7.91    1.57  NaCl
  Huntite          -1.57    -31.25  -29.68  CaMg3(CO3)4
  Hydromagnesite  -10.83    -19.01   -8.18  Mg5(CO3)4(OH)2:4H2O
  Magnesite        -0.00     -7.96   -7.96  MgCO3
  Mirabilite       -9.23    -10.56   -1.33  Na2SO4:10H2O
  Nahcolite        -5.64     -6.22   -0.59  NaHCO3
  Natron          -10.90    -12.39   -1.49  Na2CO3:10H2O
  Nesquehonite     -2.41     -7.96   -5.56  MgCO3:3H2O
  O2(g)           -36.50    -39.35   -2.86  O2
  Portlandite      -9.71     13.44   23.15  Ca(OH)2
  Thenardite      -10.39    -10.56   -0.17  Na2SO4
  Thermonatrite   -12.54    -12.39    0.16  Na2CO3:H2O
  Trona           -18.02    -18.61   -0.59  NaHCO3:Na2CO3:2H2O

**For a gas, SI = log10(fugacity). Fugacity = pressure * phi / 1 atm.
  For ideal gases, phi = 1.

Initial solution 8.	

-----------------------------Solution composition------------------------------

	Elements           Molality       Moles

	C(4)              4.559e-03   4.559e-03
	Ca                3.995e-03   3.995e-03
	Cl                1.073e-04   1.073e-04
	F                 5.268e-05   5.268e-05
	K                 3.660e-04   3.660e-04
	Mg                1.054e-03   1.054e-03
	Na                1.567e-04   1.567e-04
	S(6)              2.979e-03   2.979e-03

----------------------------Description of solution----------------------------

                                       pH  =   8.270    
                                       pe  =   4.000    
                        Activity of water  =   1.000
                 Ionic strength (mol/kgw)  =   1.542e-02
                       Mass of water (kg)  =   1.000e+00
                 Total alkalinity (eq/kg)  =   4.664e-03
                       Total CO2 (mol/kg)  =   4.559e-03
                         Temperature (°C)  =  19.70
                  Electrical balance (eq)  =  -1.620e-04
 Percent error, 100*(Cat-|An|)/(Cat+|An|)  =  -0.90
                               Iterations  =   8 (56 overall)
                                  Total H  = 1.110168e+02
                                  Total O  = 5.553177e+01

----------------------------Distribution of species----------------------------

                                               Log       Log       Log    mole V
   Species          Molality    Activity  Molality  Activity     Gamma    cm³/mol

   OH-             1.400e-06   1.234e-06    -5.854    -5.909    -0.055     (0)  
   H+              5.970e-09   5.370e-09    -8.224    -8.270    -0.046      0.00
   H2O             5.551e+01   9.998e-01     1.744    -0.000     0.000     18.05
C(4)          4.559e-03
   HCO3-           4.233e-03   3.760e-03    -2.373    -2.425    -0.051     (0)  
   CaHCO3+         9.990e-05   8.894e-05    -4.000    -4.051    -0.050     (0)  
   CaCO3           9.019e-05   9.051e-05    -4.045    -4.043     0.002     (0)  
   CO2             4.871e-05   4.889e-05    -4.312    -4.311     0.002     (0)  
   CO3-2           4.704e-05   2.928e-05    -4.328    -4.533    -0.206     (0)  
   MgHCO3+         2.628e-05   2.321e-05    -4.580    -4.634    -0.054     (0)  
   MgCO3           1.382e-05   1.387e-05    -4.859    -4.858     0.002     (0)  
   NaHCO3          2.897e-07   2.908e-07    -6.538    -6.536     0.002     (0)  
   NaCO3-          6.431e-08   5.712e-08    -7.192    -7.243    -0.051     (0)  
Ca            3.995e-03
   Ca+2            3.264e-03   2.030e-03    -2.486    -2.692    -0.206     (0)  
   CaSO4           5.406e-04   5.426e-04    -3.267    -3.266     0.002     (0)  
   CaHCO3+         9.990e-05   8.894e-05    -4.000    -4.051    -0.050     (0)  
   CaCO3           9.019e-05   9.051e-05    -4.045    -4.043     0.002     (0)  
   CaF+            7.775e-07   6.909e-07    -6.109    -6.161    -0.051     (0)  
   CaOH+           7.046e-08   6.273e-08    -7.152    -7.202    -0.050     (0)  
   CaHSO4+         1.813e-11   1.603e-11   -10.742   -10.795    -0.053     (0)  
Cl            1.073e-04
   Cl-             1.073e-04   9.457e-05    -3.970    -4.024    -0.055     (0)  
F             5.268e-05
   F-              5.028e-05   4.430e-05    -4.299    -4.354    -0.055     (0)  
   MgF+            1.615e-06   1.430e-06    -5.792    -5.845    -0.053     (0)  
   CaF+            7.775e-07   6.909e-07    -6.109    -6.161    -0.051     (0)  
   NaF             3.493e-09   3.506e-09    -8.457    -8.455     0.002     (0)  
   HF              3.236e-10   3.247e-10    -9.490    -9.489     0.002     (0)  
   HF2-            5.991e-14   5.279e-14   -13.223   -13.277    -0.055     (0)  
   H2F2            3.306e-19   3.318e-19   -18.481   -18.479     0.002     (0)  
H(0)          4.294e-28
   H2              2.147e-28   2.154e-28   -27.668   -27.667     0.002     (0)  
K             3.660e-04
   K+              3.627e-04   3.198e-04    -3.440    -3.495    -0.055     (0)  
   KSO4-           3.243e-06   2.881e-06    -5.489    -5.541    -0.051     (0)  
Mg            1.054e-03
   Mg+2            8.576e-04   5.385e-04    -3.067    -3.269    -0.202     (0)  
   MgSO4           1.542e-04   1.547e-04    -3.812    -3.810     0.002     (0)  
   MgHCO3+         2.628e-05   2.321e-05    -4.580    -4.634    -0.054     (0)  
   MgCO3           1.382e-05   1.387e-05    -4.859    -4.858     0.002     (0)  
   MgF+            1.615e-06   1.430e-06    -5.792    -5.845    -0.053     (0)  
   MgOH+           2.507e-07   2.236e-07    -6.601    -6.650    -0.050     (0)  
Na            1.567e-04
   Na+             1.553e-04   1.375e-04    -3.809    -3.862    -0.053     (0)  
   NaSO4-          1.056e-06   9.381e-07    -5.976    -6.028    -0.051     (0)  
   NaHCO3          2.897e-07   2.908e-07    -6.538    -6.536     0.002     (0)  
   NaCO3-          6.431e-08   5.712e-08    -7.192    -7.243    -0.051     (0)  
   NaF             3.493e-09   3.506e-09    -8.457    -8.455     0.002     (0)  
O(0)          3.245e-39
   O2              1.623e-39   1.628e-39   -38.790   -38.788     0.002     (0)  
S(6)          2.979e-03
   SO4-2           2.280e-03   1.408e-03    -2.642    -2.851    -0.209     (0)  
   CaSO4           5.406e-04   5.426e-04    -3.267    -3.266     0.002     (0)  
   MgSO4           1.542e-04   1.547e-04    -3.812    -3.810     0.002     (0)  
   KSO4-           3.243e-06   2.881e-06    -5.489    -5.541    -0.051     (0)  
   NaSO4-          1.056e-06   9.381e-07    -5.976    -6.028    -0.051     (0)  
   HSO4-           7.421e-10   6.568e-10    -9.130    -9.183    -0.053     (0)  
   CaHSO4+         1.813e-11   1.603e-11   -10.742   -10.795    -0.053     (0)  

------------------------------Saturation indices-------------------------------

  Phase               SI** log IAP   log K(292 K,   1 atm)

  Anhydrite        -1.20     -5.54   -4.34  CaSO4
  Aragonite         1.08     -7.23   -8.30  CaCO3
  Artinite         -4.51      5.47    9.98  MgCO3:Mg(OH)2:3H2O
  Brucite          -3.93     13.27   17.20  Mg(OH)2
  Calcite           1.23     -7.23   -8.45  CaCO3
  CO2(g)           -2.91     -4.31   -1.40  CO2
  Dolomite          1.94    -15.03  -16.96  CaMg(CO3)2
  Dolomite(d)       1.36    -15.03  -16.39  CaMg(CO3)2
  Epsomite         -3.94     -6.12   -2.18  MgSO4:7H2O
  Fluorite         -0.74    -11.40  -10.66  CaF2
  Gypsum           -0.96     -5.54   -4.58  CaSO4:2H2O
  H2(g)           -24.54    -27.67   -3.13  H2
  H2O(g)           -1.65     -0.00    1.65  H2O
  Halite           -9.46     -7.89    1.57  NaCl
  Huntite          -1.01    -30.63  -29.63  CaMg3(CO3)4
  Hydromagnesite   -9.87    -17.94   -8.07  Mg5(CO3)4(OH)2:4H2O
  Magnesite         0.15     -7.80   -7.95  MgCO3
  Mirabilite       -9.21    -10.58   -1.37  Na2SO4:10H2O
  Nahcolite        -5.69     -6.29   -0.60  NaHCO3
  Natron          -10.74    -12.26   -1.52  Na2CO3:10H2O
  Nesquehonite     -2.26     -7.80   -5.54  MgCO3:3H2O
  O2(g)           -35.94    -38.79   -2.85  O2
  Portlandite      -9.36     13.85   23.21  Ca(OH)2
  Thenardite      -10.40    -10.57   -0.17  Na2SO4
  Thermonatrite   -12.42    -12.26    0.16  Na2CO3:H2O
  Trona           -17.99    -18.54   -0.56  NaHCO3:Na2CO3:2H2O

**For a gas, SI = log10(fugacity). Fugacity = pressure * phi / 1 atm.
  For ideal gases, phi = 1.

Initial solution 9.	

-----------------------------Solution composition------------------------------

	Elements           Molality       Moles

	C(4)              4.477e-03   4.477e-03
	Ca                3.920e-03   3.920e-03
	Cl                9.597e-05   9.597e-05
	F                 5.794e-05   5.794e-05
	K                 3.583e-04   3.583e-04
	Mg                1.050e-03   1.050e-03
	Na                1.349e-04   1.349e-04
	S(6)              2.948e-03   2.948e-03

----------------------------Description of solution----------------------------

                                       pH  =   8.280    
                                       pe  =   4.000    
                        Activity of water  =   1.000
                 Ionic strength (mol/kgw)  =   1.520e-02
                       Mass of water (kg)  =   1.000e+00
                 Total alkalinity (eq/kg)  =   4.582e-03
                       Total CO2 (mol/kg)  =   4.477e-03
                         Temperature (°C)  =  19.60
                  Electrical balance (eq)  =  -1.997e-04
 Percent error, 100*(Cat-|An|)/(Cat+|An|)  =  -1.13
                               Iterations  =   8 (64 overall)
                                  Total H  = 1.110167e+02
                                  Total O  = 5.553140e+01

----------------------------Distribution of species----------------------------

                                               Log       Log       Log    mole V
   Species          Molality    Activity  Molality  Activity     Gamma    cm³/mol

   OH-             1.421e-06   1.253e-06    -5.848    -5.902    -0.055     (0)  
   H+              5.830e-09   5.248e-09    -8.234    -8.280    -0.046      0.00
   H2O             5.551e+01   9.998e-01     1.744    -0.000     0.000     18.05
C(4)          4.477e-03
   HCO3-           4.158e-03   3.696e-03    -2.381    -2.432    -0.051     (0)  
   CaHCO3+         9.645e-05   8.593e-05    -4.016    -4.066    -0.050     (0)  
   CaCO3           8.899e-05   8.930e-05    -4.051    -4.049     0.002     (0)  
   CO3-2           4.708e-05   2.939e-05    -4.327    -4.532    -0.205     (0)  
   CO2             4.687e-05   4.703e-05    -4.329    -4.328     0.002     (0)  
   MgHCO3+         2.580e-05   2.280e-05    -4.588    -4.642    -0.054     (0)  
   MgCO3           1.385e-05   1.390e-05    -4.859    -4.857     0.002     (0)  
   NaHCO3          2.454e-07   2.463e-07    -6.610    -6.609     0.002     (0)  
   NaCO3-          5.528e-08   4.914e-08    -7.257    -7.309    -0.051     (0)  
Ca            3.920e-03
   Ca+2            3.205e-03   1.999e-03    -2.494    -2.699    -0.205     (0)  
   CaSO4           5.292e-04   5.310e-04    -3.276    -3.275     0.002     (0)  
   CaHCO3+         9.645e-05   8.593e-05    -4.016    -4.066    -0.050     (0)  
   CaCO3           8.899e-05   8.930e-05    -4.051    -4.049     0.002     (0)  
   CaF+            8.405e-07   7.474e-07    -6.075    -6.126    -0.051     (0)  
   CaOH+           7.095e-08   6.321e-08    -7.149    -7.199    -0.050     (0)  
   CaHSO4+         1.731e-11   1.532e-11   -10.762   -10.815    -0.053     (0)  
Cl            9.597e-05
   Cl-             9.597e-05   8.468e-05    -4.018    -4.072    -0.054     (0)  
F             5.794e-05
   F-              5.533e-05   4.879e-05    -4.257    -4.312    -0.055     (0)  
   MgF+            1.774e-06   1.571e-06    -5.751    -5.804    -0.053     (0)  
   CaF+            8.405e-07   7.474e-07    -6.075    -6.126    -0.051     (0)  
   NaF             3.316e-09   3.327e-09    -8.479    -8.478     0.002     (0)  
   HF              3.476e-10   3.488e-10    -9.459    -9.457     0.002     (0)  
   HF2-            7.075e-14   6.239e-14   -13.150   -13.205    -0.055     (0)  
   H2F2            3.829e-19   3.843e-19   -18.417   -18.415     0.002     (0)  
H(0)          4.105e-28
   H2              2.052e-28   2.060e-28   -27.688   -27.686     0.002     (0)  
K             3.583e-04
   K+              3.552e-04   3.134e-04    -3.450    -3.504    -0.054     (0)  
   KSO4-           3.153e-06   2.803e-06    -5.501    -5.552    -0.051     (0)  
Mg            1.050e-03
   Mg+2            8.550e-04   5.384e-04    -3.068    -3.269    -0.201     (0)  
   MgSO4           1.529e-04   1.535e-04    -3.815    -3.814     0.002     (0)  
   MgHCO3+         2.580e-05   2.280e-05    -4.588    -4.642    -0.054     (0)  
   MgCO3           1.385e-05   1.390e-05    -4.859    -4.857     0.002     (0)  
   MgF+            1.774e-06   1.571e-06    -5.751    -5.804    -0.053     (0)  
   MgOH+           2.539e-07   2.266e-07    -6.595    -6.645    -0.049     (0)  
Na            1.349e-04
   Na+             1.337e-04   1.185e-04    -3.874    -3.926    -0.053     (0)  
   NaSO4-          9.042e-07   8.037e-07    -6.044    -6.095    -0.051     (0)  
   NaHCO3          2.454e-07   2.463e-07    -6.610    -6.609     0.002     (0)  
   NaCO3-          5.528e-08   4.914e-08    -7.257    -7.309    -0.051     (0)  
   NaF             3.316e-09   3.327e-09    -8.479    -8.478     0.002     (0)  
O(0)          3.288e-39
   O2              1.644e-39   1.650e-39   -38.784   -38.783     0.002     (0)  
S(6)          2.948e-03
   SO4-2           2.262e-03   1.401e-03    -2.646    -2.853    -0.208     (0)  
   CaSO4           5.292e-04   5.310e-04    -3.276    -3.275     0.002     (0)  
   MgSO4           1.529e-04   1.535e-04    -3.815    -3.814     0.002     (0)  
   KSO4-           3.153e-06   2.803e-06    -5.501    -5.552    -0.051     (0)  
   NaSO4-          9.042e-07   8.037e-07    -6.044    -6.095    -0.051     (0)  
   HSO4-           7.194e-10   6.372e-10    -9.143    -9.196    -0.053     (0)  
   CaHSO4+         1.731e-11   1.532e-11   -10.762   -10.815    -0.053     (0)  

------------------------------Saturation indices-------------------------------

  Phase               SI** log IAP   log K(292 K,   1 atm)

  Anhydrite        -1.21     -5.55   -4.34  CaSO4
  Aragonite         1.07     -7.23   -8.30  CaCO3
  Artinite         -4.50      5.49    9.99  MgCO3:Mg(OH)2:3H2O
  Brucite          -3.92     13.29   17.21  Mg(OH)2
  Calcite           1.22     -7.23   -8.45  CaCO3
  CO2(g)           -2.93     -4.33   -1.40  CO2
  Dolomite          1.93    -15.03  -16.96  CaMg(CO3)2
  Dolomite(d)       1.36    -15.03  -16.39  CaMg(CO3)2
  Epsomite         -3.94     -6.12   -2.18  MgSO4:7H2O
  Fluorite         -0.66    -11.32  -10.66  CaF2
  Gypsum           -0.97     -5.55   -4.58  CaSO4:2H2O
  H2(g)           -24.56    -27.69   -3.13  H2
  H2O(g)           -1.65     -0.00    1.65  H2O
  Halite           -9.57     -8.00    1.57  NaCl
  Huntite          -1.01    -30.63  -29.62  CaMg3(CO3)4
  Hydromagnesite   -9.86    -17.91   -8.06  Mg5(CO3)4(OH)2:4H2O
  Magnesite         0.14     -7.80   -7.95  MgCO3
  Mirabilite       -9.34    -10.71   -1.37  Na2SO4:10H2O
  Nahcolite        -5.76     -6.36   -0.60  NaHCO3
  Natron          -10.86    -12.39   -1.52  Na2CO3:10H2O
  Nesquehonite     -2.26     -7.80   -5.54  MgCO3:3H2O
  O2(g)           -35.93    -38.78   -2.85  O2
  Portlandite      -9.36     13.86   23.22  Ca(OH)2
  Thenardite      -10.53    -10.71   -0.17  Na2SO4
  Thermonatrite   -12.55    -12.38    0.16  Na2CO3:H2O
  Trona           -18.19    -18.74   -0.55  NaHCO3:Na2CO3:2H2O

**For a gas, SI = log10(fugacity). Fugacity = pressure * phi / 1 atm.
  For ideal gases, phi = 1.

Initial solution 10.	

-----------------------------Solution composition------------------------------

	Elements           Molality       Moles

	C(4)              4.330e-03   4.330e-03
	Ca                3.770e-03   3.770e-03
	Cl                9.597e-05   9.597e-05
	F                 5.268e-05   5.268e-05
	K                 3.660e-04   3.660e-04
	Mg                1.054e-03   1.054e-03
	Na                1.393e-04   1.393e-04
	S(6)              2.948e-03   2.948e-03

----------------------------Description of solution----------------------------

                                       pH  =   8.370    
                                       pe  =   4.000    
                        Activity of water  =   1.000
                 Ionic strength (mol/kgw)  =   1.493e-02
                       Mass of water (kg)  =   1.000e+00
                 Total alkalinity (eq/kg)  =   4.462e-03
                       Total CO2 (mol/kg)  =   4.330e-03
                         Temperature (°C)  =  18.40
                  Electrical balance (eq)  =  -3.531e-04
 Percent error, 100*(Cat-|An|)/(Cat+|An|)  =  -2.04
                               Iterations  =   8 (72 overall)
                                  Total H  = 1.110166e+02
                                  Total O  = 5.553096e+01

----------------------------Distribution of species----------------------------

                                               Log       Log       Log    mole V
   Species          Molality    Activity  Molality  Activity     Gamma    cm³/mol

   OH-             1.585e-06   1.399e-06    -5.800    -5.854    -0.054     (0)  
   H+              4.735e-09   4.266e-09    -8.325    -8.370    -0.045      0.00
   H2O             5.551e+01   9.998e-01     1.744    -0.000     0.000     18.04
C(4)          4.330e-03
   HCO3-           4.012e-03   3.570e-03    -2.397    -2.447    -0.051     (0)  
   CaCO3           9.725e-05   9.759e-05    -4.012    -4.011     0.001     (0)  
   CaHCO3+         8.757e-05   7.810e-05    -4.058    -4.107    -0.050     (0)  
   CO3-2           5.415e-05   3.395e-05    -4.266    -4.469    -0.203     (0)  
   CO2             3.751e-05   3.764e-05    -4.426    -4.424     0.001     (0)  
   MgHCO3+         2.503e-05   2.215e-05    -4.602    -4.655    -0.053     (0)  
   MgCO3           1.586e-05   1.591e-05    -4.800    -4.798     0.001     (0)  
   NaHCO3          2.450e-07   2.459e-07    -6.611    -6.609     0.001     (0)  
   NaCO3-          6.191e-08   5.509e-08    -7.208    -7.259    -0.051     (0)  
Ca            3.770e-03
   Ca+2            3.074e-03   1.926e-03    -2.512    -2.715    -0.203     (0)  
   CaSO4           5.106e-04   5.124e-04    -3.292    -3.290     0.001     (0)  
   CaCO3           9.725e-05   9.759e-05    -4.012    -4.011     0.001     (0)  
   CaHCO3+         8.757e-05   7.810e-05    -4.058    -4.107    -0.050     (0)  
   CaF+            7.160e-07   6.374e-07    -6.145    -6.196    -0.051     (0)  
   CaOH+           8.401e-08   7.493e-08    -7.076    -7.125    -0.050     (0)  
   CaHSO4+         1.338e-11   1.186e-11   -10.873   -10.926    -0.053     (0)  
Cl            9.597e-05
   Cl-             9.597e-05   8.478e-05    -4.018    -4.072    -0.054     (0)  
F             5.268e-05
   F-              5.036e-05   4.447e-05    -4.298    -4.352    -0.054     (0)  
   MgF+            1.593e-06   1.413e-06    -5.798    -5.850    -0.052     (0)  
   CaF+            7.160e-07   6.374e-07    -6.145    -6.196    -0.051     (0)  
   NaF             3.123e-09   3.134e-09    -8.505    -8.504     0.001     (0)  
   HF              2.522e-10   2.530e-10    -9.598    -9.597     0.001     (0)  
   HF2-            4.620e-14   4.079e-14   -13.335   -13.389    -0.054     (0)  
   H2F2            2.102e-19   2.109e-19   -18.677   -18.676     0.001     (0)  
H(0)          2.746e-28
   H2              1.373e-28   1.378e-28   -27.862   -27.861     0.001     (0)  
K             3.660e-04
   K+              3.628e-04   3.205e-04    -3.440    -3.494    -0.054     (0)  
   KSO4-           3.194e-06   2.842e-06    -5.496    -5.546    -0.051     (0)  
Mg            1.054e-03
   Mg+2            8.595e-04   5.435e-04    -3.066    -3.265    -0.199     (0)  
   MgSO4           1.515e-04   1.520e-04    -3.820    -3.818     0.001     (0)  
   MgHCO3+         2.503e-05   2.215e-05    -4.602    -4.655    -0.053     (0)  
   MgCO3           1.586e-05   1.591e-05    -4.800    -4.798     0.001     (0)  
   MgF+            1.593e-06   1.413e-06    -5.798    -5.850    -0.052     (0)  
   MgOH+           2.814e-07   2.514e-07    -6.551    -6.600    -0.049     (0)  
Na            1.393e-04
   Na+             1.380e-04   1.225e-04    -3.860    -3.912    -0.052     (0)  
   NaSO4-          9.384e-07   8.350e-07    -6.028    -6.078    -0.051     (0)  
   NaHCO3          2.450e-07   2.459e-07    -6.611    -6.609     0.001     (0)  
   NaCO3-          6.191e-08   5.509e-08    -7.208    -7.259    -0.051     (0)  
   NaF             3.123e-09   3.134e-09    -8.505    -8.504     0.001     (0)  
O(0)          2.903e-39
   O2              1.451e-39   1.456e-39   -38.838   -38.837     0.001     (0)  
S(6)          2.948e-03
   SO4-2           2.282e-03   1.420e-03    -2.642    -2.848    -0.206     (0)  
   CaSO4           5.106e-04   5.124e-04    -3.292    -3.290     0.001     (0)  
   MgSO4           1.515e-04   1.520e-04    -3.820    -3.818     0.001     (0)  
   KSO4-           3.194e-06   2.842e-06    -5.496    -5.546    -0.051     (0)  
   NaSO4-          9.384e-07   8.350e-07    -6.028    -6.078    -0.051     (0)  
   HSO4-           5.774e-10   5.119e-10    -9.239    -9.291    -0.052     (0)  
   CaHSO4+         1.338e-11   1.186e-11   -10.873   -10.926    -0.053     (0)  

------------------------------Saturation indices-------------------------------

  Phase               SI** log IAP   log K(291 K,   1 atm)

  Anhydrite        -1.22     -5.56   -4.34  CaSO4
  Aragonite         1.11     -7.18   -8.30  CaCO3
  Artinite         -4.34      5.74   10.08  MgCO3:Mg(OH)2:3H2O
  Brucite          -3.81     13.47   17.29  Mg(OH)2
  Calcite           1.26     -7.18   -8.45  CaCO3
  CO2(g)           -3.04     -4.42   -1.39  CO2
  Dolomite          2.02    -14.92  -16.93  CaMg(CO3)2
  Dolomite(d)       1.44    -14.92  -16.36  CaMg(CO3)2
  Epsomite         -3.93     -6.11   -2.19  MgSO4:7H2O
  Fluorite         -0.74    -11.42  -10.68  CaF2
  Gypsum           -0.98     -5.56   -4.58  CaSO4:2H2O
  H2(g)           -24.74    -27.86   -3.12  H2
  H2O(g)           -1.68     -0.00    1.68  H2O
  Halite           -9.55     -7.98    1.57  NaCl
  Huntite          -0.85    -30.39  -29.54  CaMg3(CO3)4
  Hydromagnesite   -9.57    -17.46   -7.90  Mg5(CO3)4(OH)2:4H2O
  Magnesite         0.19     -7.73   -7.93  MgCO3
  Mirabilite       -9.24    -10.67   -1.43  Na2SO4:10H2O
  Nahcolite        -5.75     -6.36   -0.61  NaHCO3
  Natron          -10.72    -12.29   -1.57  Na2CO3:10H2O
  Nesquehonite     -2.21     -7.73   -5.52  MgCO3:3H2O
  O2(g)           -36.00    -38.84   -2.84  O2
  Portlandite      -9.29     14.02   23.31  Ca(OH)2
  Thenardite      -10.50    -10.67   -0.17  Na2SO4
  Thermonatrite   -12.46    -12.29    0.17  Na2CO3:H2O
  Trona           -18.16    -18.65   -0.50  NaHCO3:Na2CO3:2H2O

**For a gas, SI = log10(fugacity). Fugacity = pressure * phi / 1 atm.
  For ideal gases, phi = 1.

Initial solution 11.	

-----------------------------Solution composition------------------------------

	Elements           Molality       Moles

	C(4)              3.444e-03   3.444e-03
	Ca                3.046e-03   3.046e-03
	Cl                1.129e-04   1.129e-04
	F                 3.687e-05   3.687e-05
	K                 2.917e-04   2.917e-04
	Mg                8.767e-04   8.767e-04
	Na                1.436e-04   1.436e-04
	S(6)              2.562e-03   2.562e-03

----------------------------Description of solution----------------------------

                                       pH  =   8.250    
                                       pe  =   4.000    
                        Activity of water  =   1.000
                 Ionic strength (mol/kgw)  =   1.270e-02
                       Mass of water (kg)  =   1.000e+00
                 Total alkalinity (eq/kg)  =   3.483e-03
                       Total CO2 (mol/kg)  =   3.444e-03
                         Temperature (°C)  =  14.40
                  Electrical balance (eq)  =  -4.768e-04
 Percent error, 100*(Cat-|An|)/(Cat+|An|)  =  -3.25
                               Iterations  =   8 (80 overall)
                                  Total H  = 1.110158e+02
                                  Total O  = 5.552675e+01

----------------------------Distribution of species----------------------------

                                               Log       Log       Log    mole V
   Species          Molality    Activity  Molality  Activity     Gamma    cm³/mol

   OH-             8.549e-07   7.619e-07    -6.068    -6.118    -0.050     (0)  
   H+              6.200e-09   5.623e-09    -8.208    -8.250    -0.042      0.00
   H2O             5.551e+01   9.998e-01     1.744    -0.000     0.000     18.03
C(4)          3.444e-03
   HCO3-           3.246e-03   2.912e-03    -2.489    -2.536    -0.047     (0)  
   CaHCO3+         5.572e-05   5.009e-05    -4.254    -4.300    -0.046     (0)  
   CaCO3           4.438e-05   4.451e-05    -4.353    -4.352     0.001     (0)  
   CO2             4.332e-05   4.345e-05    -4.363    -4.362     0.001     (0)  
   CO3-2           2.934e-05   1.901e-05    -4.533    -4.721    -0.188     (0)  
   MgHCO3+         1.775e-05   1.585e-05    -4.751    -4.800    -0.049     (0)  
   MgCO3           7.404e-06   7.426e-06    -5.131    -5.129     0.001     (0)  
   NaHCO3          2.082e-07   2.088e-07    -6.682    -6.680     0.001     (0)  
   NaCO3-          2.890e-08   2.593e-08    -7.539    -7.586    -0.047     (0)  
Ca            3.046e-03
[...]
  H2O(g)           -1.53     -0.00    1.53  H2O
  H2S(g)          -22.05    -23.04   -0.99  H2S
  Halite           -9.36     -7.78    1.58  NaCl
  Huntite          -4.96    -34.88  -29.92  CaMg3(CO3)4
  Hydromagnesite  -13.80    -22.48   -8.67  Mg5(CO3)4(OH)2:4H2O
  Magnesite        -0.78     -8.80   -8.02  MgCO3
  Mirabilite       -9.06    -10.21   -1.15  Na2SO4:10H2O
  Nahcolite        -6.35     -6.91   -0.55  NaHCO3
  Natron          -11.62    -12.95   -1.34  Na2CO3:10H2O
  Nesquehonite     -3.19     -8.80   -5.61  MgCO3:3H2O
  O2(g)           -60.92    -63.81   -2.89  O2
  Portlandite      -9.80     13.05   22.85  Ca(OH)2
  Sulfur          -16.64    -31.68  -15.04  S
  Thenardite      -10.03    -10.21   -0.18  Na2SO4
  Thermonatrite   -13.08    -12.95    0.13  Na2CO3:H2O
  Trona           -19.10    -19.86   -0.76  NaHCO3:Na2CO3:2H2O

**For a gas, SI = log10(fugacity). Fugacity = pressure * phi / 1 atm.
  For ideal gases, phi = 1.

------------------
End of simulation.
------------------

------------------------------------
Reading input data for simulation 6.
------------------------------------

	USE solution 5 # Equilibrate D3 with atmosphere and calcite...
	EQUILIBRIUM_PHASES 5
	    CO2(g)    -3.38 10
	    calcite   0 0
	end
-----------------------------------------
Beginning of batch-reaction calculations.
-----------------------------------------

Reaction step 1.

Using solution 5.	
Using pure phase assemblage 5.	

-------------------------------Phase assemblage--------------------------------

                                                      Moles in assemblage
Phase               SI  log IAP  log K(T, P)   Initial       Final       Delta

CO2(g)           -3.38    -4.83     -1.45    1.000e+01   1.000e+01   2.359e-03
Calcite           0.00    -8.47     -8.47    0.000e+00   2.043e-03   2.043e-03

-----------------------------Solution composition------------------------------

	Elements           Molality       Moles

	C                 7.481e-04   7.481e-04
	Ca                2.152e-03   2.152e-03
	Cl                9.880e-05   9.880e-05
	F                 6.321e-05   6.321e-05
	K                 3.302e-04   3.302e-04
	Mg                1.078e-03   1.079e-03
	Na                1.219e-04   1.219e-04
	S                 3.000e-03   3.000e-03

----------------------------Description of solution----------------------------

                                       pH  =   7.996      Charge balance
                                       pe  =  -2.491      Adjusted to redox equilibrium
                        Activity of water  =   1.000
                 Ionic strength (mol/kgw)  =   1.078e-02
                       Mass of water (kg)  =   1.000e+00
                 Total alkalinity (eq/kg)  =   7.460e-04
                       Total CO2 (mol/kg)  =   7.481e-04
                         Temperature (°C)  =  23.60
                  Electrical balance (eq)  =   4.825e-06
 Percent error, 100*(Cat-|An|)/(Cat+|An|)  =   0.04
                               Iterations  =  11
                                  Total H  = 1.110172e+02
                                  Total O  = 5.552248e+01

----------------------------Distribution of species----------------------------

                                               Log       Log       Log    mole V
   Species          Molality    Activity  Molality  Activity     Gamma    cm³/mol

   OH-             9.931e-07   8.909e-07    -6.003    -6.050    -0.047     (0)  
   H+              1.108e-08   1.010e-08    -7.955    -7.996    -0.040      0.00
   H2O             5.551e+01   9.999e-01     1.744    -0.000     0.000     18.06
C(-4)         5.185e-25
   CH4             5.185e-25   5.197e-25   -24.285   -24.284     0.001     (0)  
C(4)          7.481e-04
   HCO3-           7.069e-04   6.379e-04    -3.151    -3.195    -0.045     (0)  
   CO2             1.471e-05   1.475e-05    -4.832    -4.831     0.001     (0)  
   CaHCO3+         1.032e-05   9.325e-06    -4.986    -5.030    -0.044     (0)  
   CaCO3           5.484e-06   5.497e-06    -5.261    -5.260     0.001     (0)  
   MgHCO3+         4.752e-06   4.269e-06    -5.323    -5.370    -0.046     (0)  
   CO3-2           4.341e-06   2.878e-06    -5.362    -5.541    -0.178     (0)  
   MgCO3           1.543e-06   1.547e-06    -5.812    -5.811     0.001     (0)  
   NaHCO3          3.894e-08   3.903e-08    -7.410    -7.409     0.001     (0)  
   NaCO3-          6.020e-09   5.433e-09    -8.220    -8.265    -0.045     (0)  
Ca            2.152e-03
   Ca+2            1.768e-03   1.172e-03    -2.752    -2.931    -0.179     (0)  
   CaSO4           3.674e-04   3.683e-04    -3.435    -3.434     0.001     (0)  
   CaHCO3+         1.032e-05   9.325e-06    -4.986    -5.030    -0.044     (0)  
   CaCO3           5.484e-06   5.497e-06    -5.261    -5.260     0.001     (0)  
   CaF+            5.926e-07   5.349e-07    -6.227    -6.272    -0.044     (0)  
   CaOH+           2.130e-08   1.925e-08    -7.672    -7.716    -0.044     (0)  
   CaHSO4+         2.382e-11   2.142e-11   -10.623   -10.669    -0.046     (0)  
Cl            9.880e-05
   Cl-             9.880e-05   8.866e-05    -4.005    -4.052    -0.047     (0)  
F             6.321e-05
   F-              6.038e-05   5.417e-05    -4.219    -4.266    -0.047     (0)  
   MgF+            2.231e-06   2.008e-06    -5.652    -5.697    -0.046     (0)  
   CaF+            5.926e-07   5.349e-07    -6.227    -6.272    -0.044     (0)  
   NaF             3.383e-09   3.392e-09    -8.471    -8.470     0.001     (0)  
   HF              7.980e-10   8.000e-10    -9.098    -9.097     0.001     (0)  
   HF2-            1.833e-13   1.644e-13   -12.737   -12.784    -0.047     (0)  
   H2F2            1.750e-18   1.754e-18   -17.757   -17.756     0.001     (0)  
H(0)          1.404e-14
   H2              7.022e-15   7.040e-15   -14.154   -14.152     0.001     (0)  
K             3.302e-04
   K+              3.266e-04   2.931e-04    -3.486    -3.533    -0.047     (0)  
   KSO4-           3.554e-06   3.207e-06    -5.449    -5.494    -0.045     (0)  
Mg            1.078e-03
   Mg+2            8.626e-04   5.755e-04    -3.064    -3.240    -0.176     (0)  
   MgSO4           2.071e-04   2.077e-04    -3.684    -3.683     0.001     (0)  
   MgHCO3+         4.752e-06   4.269e-06    -5.323    -5.370    -0.046     (0)  
   MgF+            2.231e-06   2.008e-06    -5.652    -5.697    -0.046     (0)  
   MgCO3           1.543e-06   1.547e-06    -5.812    -5.811     0.001     (0)  
   MgOH+           2.013e-07   1.822e-07    -6.696    -6.739    -0.043     (0)  
Na            1.219e-04
   Na+             1.209e-04   1.088e-04    -3.918    -3.963    -0.046     (0)  
   NaSO4-          9.561e-07   8.627e-07    -6.020    -6.064    -0.045     (0)  
   NaHCO3          3.894e-08   3.903e-08    -7.410    -7.409     0.001     (0)  
   NaCO3-          6.020e-09   5.433e-09    -8.220    -8.265    -0.045     (0)  
   NaF             3.383e-09   3.392e-09    -8.471    -8.470     0.001     (0)  
O(0)          0.000e+00
   O2              0.000e+00   0.000e+00   -64.530   -64.529     0.001     (0)  
S(-2)         1.889e-21
   HS-             1.351e-21   1.212e-21   -20.869   -20.916    -0.047     (0)  
   H2S             1.114e-22   1.117e-22   -21.953   -21.952     0.001     (0)  
   S5-2            4.000e-23   2.832e-23   -22.398   -22.548    -0.150     (0)  
   S4-2            2.368e-23   1.647e-23   -22.626   -22.783    -0.158     (0)  
   S6-2            2.195e-23   1.579e-23   -22.659   -22.802    -0.143     (0)  
   S-2             1.995e-26   1.317e-26   -25.700   -25.881    -0.181     (0)  
   S3-2            8.460e-27   5.772e-27   -26.073   -26.239    -0.166     (0)  
   S2-2            4.840e-28   3.250e-28   -27.315   -27.488    -0.173     (0)  
S(6)          3.000e-03
   SO4-2           2.421e-03   1.596e-03    -2.616    -2.797    -0.181     (0)  
   CaSO4           3.674e-04   3.683e-04    -3.435    -3.434     0.001     (0)  
   MgSO4           2.071e-04   2.077e-04    -3.684    -3.683     0.001     (0)  
   KSO4-           3.554e-06   3.207e-06    -5.449    -5.494    -0.045     (0)  
   NaSO4-          9.561e-07   8.627e-07    -6.020    -6.064    -0.045     (0)  
   HSO4-           1.689e-09   1.520e-09    -8.772    -8.818    -0.046     (0)  
   CaHSO4+         2.382e-11   2.142e-11   -10.623   -10.669    -0.046     (0)  

------------------------------Saturation indices-------------------------------

  Phase               SI** log IAP   log K(296 K,   1 atm)

  Anhydrite        -1.37     -5.73   -4.36  CaSO4
  Aragonite        -0.14     -8.47   -8.33  CaCO3
  Artinite         -5.73      3.97    9.70  MgCO3:Mg(OH)2:3H2O
  Brucite          -4.18     12.75   16.93  Mg(OH)2
  Calcite           0.00     -8.47   -8.47  CaCO3
  CH4(g)          -21.44    -24.28   -2.85  CH4
  CO2(g)           -3.38     -4.83   -1.45  CO2
  Dolomite         -0.20    -17.25  -17.06  CaMg(CO3)2
  Dolomite(d)      -0.75    -17.25  -16.50  CaMg(CO3)2
  Epsomite         -3.89     -6.04   -2.15  MgSO4:7H2O
  Fluorite         -0.85    -11.46  -10.62  CaF2
  Gypsum           -1.15     -5.73   -4.58  CaSO4:2H2O
  H2(g)           -11.01    -14.15   -3.14  H2
  H2O(g)           -1.55     -0.00    1.55  H2O
  H2S(g)          -20.97    -21.95   -0.98  H2S
  Halite           -9.59     -8.02    1.58  NaCl
  Huntite          -4.94    -34.81  -29.88  CaMg3(CO3)4
  Hydromagnesite  -13.79    -22.37   -8.58  Mg5(CO3)4(OH)2:4H2O
  Magnesite        -0.77     -8.78   -8.01  MgCO3
  Mirabilite       -9.54    -10.72   -1.18  Na2SO4:10H2O
  Nahcolite        -6.60     -7.16   -0.56  NaHCO3
  Natron          -12.10    -13.47   -1.37  Na2CO3:10H2O
  Nesquehonite     -3.18     -8.78   -5.60  MgCO3:3H2O
  O2(g)           -61.65    -64.53   -2.88  O2
  Portlandite      -9.85     13.06   22.91  Ca(OH)2
  Sulfur          -15.81    -30.86  -15.05  S
  Thenardite      -10.55    -10.72   -0.18  Na2SO4
  Thermonatrite   -13.60    -13.47    0.13  Na2CO3:H2O
  Trona           -19.89    -20.63   -0.73  NaHCO3:Na2CO3:2H2O

**For a gas, SI = log10(fugacity). Fugacity = pressure * phi / 1 atm.
  For ideal gases, phi = 1.

------------------
End of simulation.
------------------

------------------------------------
Reading input data for simulation 7.
------------------------------------

	USE solution 11 # Equilibrate F6 with atmosphere and calcite...
	EQUILIBRIUM_PHASES 5
	    CO2(g)    -3.38 10
	    calcite   0 0
	end
-----------------------------------------
Beginning of batch-reaction calculations.
-----------------------------------------

Reaction step 1.

Using solution 11.	
Using pure phase assemblage 5.	

-------------------------------Phase assemblage--------------------------------

                                                      Moles in assemblage
Phase               SI  log IAP  log K(T, P)   Initial       Final       Delta

CO2(g)           -3.38    -4.71     -1.33    1.000e+01   1.000e+01   1.207e-03
Calcite           0.00    -8.43     -8.43    0.000e+00   1.252e-03   1.252e-03

-----------------------------Solution composition------------------------------

	Elements           Molality       Moles

	C                 9.845e-04   9.846e-04
	Ca                1.793e-03   1.794e-03
	Cl                1.129e-04   1.129e-04
	F                 3.687e-05   3.687e-05
	K                 2.917e-04   2.917e-04
	Mg                8.766e-04   8.767e-04
	Na                1.436e-04   1.436e-04
	S                 2.562e-03   2.562e-03

----------------------------Description of solution----------------------------

                                       pH  =   8.066      Charge balance
                                       pe  =  10.657      Adjusted to redox equilibrium
                        Activity of water  =   1.000
                 Ionic strength (mol/kgw)  =   9.594e-03
                       Mass of water (kg)  =   1.000e+00
                 Total alkalinity (eq/kg)  =   9.780e-04
                       Total CO2 (mol/kg)  =   9.845e-04
                         Temperature (°C)  =  14.40
                  Electrical balance (eq)  =  -4.768e-04
 Percent error, 100*(Cat-|An|)/(Cat+|An|)  =  -4.60
                               Iterations  =  10
                                  Total H  = 1.110158e+02
                                  Total O  = 5.552058e+01

----------------------------Distribution of species----------------------------

                                               Log       Log       Log    mole V
   Species          Molality    Activity  Molality  Activity     Gamma    cm³/mol

   OH-             5.528e-07   4.993e-07    -6.257    -6.302    -0.044     (0)  
   H+              9.368e-09   8.581e-09    -8.028    -8.066    -0.038      0.00
   H2O             5.551e+01   9.999e-01     1.744    -0.000     0.000     18.03
C(-4)         0.000e+00
   CH4             0.000e+00   0.000e+00  -128.641  -128.640     0.001     (0)  
C(4)          9.845e-04
   HCO3-           9.376e-04   8.515e-04    -3.028    -3.070    -0.042     (0)  
   CO2             1.934e-05   1.938e-05    -4.713    -4.713     0.001     (0)  
   CaHCO3+         9.990e-06   9.086e-06    -5.000    -5.042    -0.041     (0)  
   MgHCO3+         5.371e-06   4.859e-06    -5.270    -5.313    -0.044     (0)  
   CO3-2           5.357e-06   3.643e-06    -5.271    -5.439    -0.167     (0)  
   CaCO3           5.280e-06   5.292e-06    -5.277    -5.276     0.001     (0)  
   MgCO3           1.489e-06   1.492e-06    -5.827    -5.826     0.001     (0)  
   NaHCO3          6.173e-08   6.187e-08    -7.210    -7.209     0.001     (0)  
   NaCO3-          5.544e-09   5.035e-09    -8.256    -8.298    -0.042     (0)  
Ca            1.793e-03
   Ca+2            1.509e-03   1.025e-03    -2.821    -2.989    -0.168     (0)  
   CaSO4           2.692e-04   2.698e-04    -3.570    -3.569     0.001     (0)  
   CaHCO3+         9.990e-06   9.086e-06    -5.000    -5.042    -0.041     (0)  
   CaCO3           5.280e-06   5.292e-06    -5.277    -5.276     0.001     (0)  
   CaF+            2.450e-07   2.226e-07    -6.611    -6.653    -0.042     (0)  
   CaOH+           2.180e-08   1.983e-08    -7.661    -7.703    -0.041     (0)  
   CaHSO4+         1.331e-11   1.205e-11   -10.876   -10.919    -0.043     (0)  
Cl            1.129e-04
   Cl-             1.129e-04   1.020e-04    -3.947    -3.991    -0.044     (0)  
F             3.687e-05
   F-              3.565e-05   3.220e-05    -4.448    -4.492    -0.044     (0)  
   MgF+            9.721e-07   8.806e-07    -6.012    -6.055    -0.043     (0)  
   CaF+            2.450e-07   2.226e-07    -6.611    -6.653    -0.042     (0)  
   NaF             2.389e-09   2.394e-09    -8.622    -8.621     0.001     (0)  
   HF              3.431e-10   3.439e-10    -9.465    -9.464     0.001     (0)  
   HF2-            4.271e-14   3.858e-14   -13.370   -13.414    -0.044     (0)  
   H2F2            4.465e-19   4.475e-19   -18.350   -18.349     0.001     (0)  
H(0)          0.000e+00
   H2              0.000e+00   0.000e+00   -40.551   -40.550     0.001     (0)  
K             2.917e-04
   K+              2.893e-04   2.614e-04    -3.539    -3.583    -0.044     (0)  
   KSO4-           2.440e-06   2.216e-06    -5.613    -5.655    -0.042     (0)  
Mg            8.766e-04
   Mg+2            7.386e-04   5.051e-04    -3.132    -3.297    -0.165     (0)  
   MgSO4           1.301e-04   1.304e-04    -3.886    -3.885     0.001     (0)  
   MgHCO3+         5.371e-06   4.859e-06    -5.270    -5.313    -0.044     (0)  
   MgCO3           1.489e-06   1.492e-06    -5.827    -5.826     0.001     (0)  
   MgF+            9.721e-07   8.806e-07    -6.012    -6.055    -0.043     (0)  
   MgOH+           8.698e-08   7.921e-08    -7.061    -7.101    -0.041     (0)  
Na            1.436e-04
   Na+             1.426e-04   1.292e-04    -3.846    -3.889    -0.043     (0)  
   NaSO4-          9.718e-07   8.825e-07    -6.012    -6.054    -0.042     (0)  
   NaHCO3          6.173e-08   6.187e-08    -7.210    -7.209     0.001     (0)  
   NaCO3-          5.544e-09   5.035e-09    -8.256    -8.298    -0.042     (0)  
   NaF             2.389e-09   2.394e-09    -8.622    -8.621     0.001     (0)  
O(0)          2.968e-15
   O2              1.484e-15   1.487e-15   -14.829   -14.828     0.001     (0)  
S(-2)         0.000e+00
   HS-             0.000e+00   0.000e+00  -125.328  -125.373    -0.044     (0)  
   H2S             0.000e+00   0.000e+00  -126.346  -126.345     0.001     (0)  
   S5-2            0.000e+00   0.000e+00  -127.011  -127.152    -0.142     (0)  
   S6-2            0.000e+00   0.000e+00  -127.052  -127.187    -0.136     (0)  
   S4-2            0.000e+00   0.000e+00  -127.248  -127.397    -0.149     (0)  
   S-2             0.000e+00   0.000e+00  -130.382  -130.551    -0.169     (0)  
   S3-2            0.000e+00   0.000e+00  -130.713  -130.869    -0.156     (0)  
   S2-2            0.000e+00   0.000e+00  -131.980  -132.142    -0.163     (0)  
S(6)          2.562e-03
   SO4-2           2.160e-03   1.461e-03    -2.666    -2.835    -0.170     (0)  
   CaSO4           2.692e-04   2.698e-04    -3.570    -3.569     0.001     (0)  
   MgSO4           1.301e-04   1.304e-04    -3.886    -3.885     0.001     (0)  
   KSO4-           2.440e-06   2.216e-06    -5.613    -5.655    -0.042     (0)  
   NaSO4-          9.718e-07   8.825e-07    -6.012    -6.054    -0.042     (0)  
   HSO4-           1.079e-09   9.775e-10    -8.967    -9.010    -0.043     (0)  
   CaHSO4+         1.331e-11   1.205e-11   -10.876   -10.919    -0.043     (0)  

------------------------------Saturation indices-------------------------------

  Phase               SI** log IAP   log K(287 K,   1 atm)

  Anhydrite        -1.49     -5.82   -4.33  CaSO4
  Aragonite        -0.15     -8.43   -8.28  CaCO3
  Artinite         -6.28      4.10   10.38  MgCO3:Mg(OH)2:3H2O
  Brucite          -4.74     12.84   17.57  Mg(OH)2
  Calcite           0.00     -8.43   -8.43  CaCO3
  CH4(g)         -125.87   -128.64   -2.77  CH4
  CO2(g)           -3.38     -4.71   -1.33  CO2
  Dolomite         -0.33    -17.16  -16.84  CaMg(CO3)2
  Dolomite(d)      -0.92    -17.16  -16.24  CaMg(CO3)2
  Epsomite         -3.92     -6.13   -2.22  MgSO4:7H2O
  Fluorite         -1.24    -11.97  -10.73  CaF2
  Gypsum           -1.24     -5.82   -4.59  CaSO4:2H2O
  H2(g)           -37.45    -40.55   -3.10  H2
  H2O(g)           -1.79     -0.00    1.79  H2O
  H2S(g)         -125.47   -126.34   -0.87  H2S
  Halite           -9.44     -7.88    1.56  NaCl
  Huntite          -5.36    -34.63  -29.27  CaMg3(CO3)4
  Hydromagnesite  -14.75    -22.10   -7.35  Mg5(CO3)4(OH)2:4H2O
  Magnesite        -0.87     -8.74   -7.86  MgCO3
  Mirabilite       -8.99    -10.61   -1.63  Na2SO4:10H2O
  Nahcolite        -6.31     -6.96   -0.65  NaHCO3
  Natron          -11.48    -13.22   -1.74  Na2CO3:10H2O
  Nesquehonite     -3.27     -8.74   -5.46  MgCO3:3H2O
  O2(g)           -12.02    -14.83   -2.81  O2
  Portlandite     -10.49     13.14   23.64  Ca(OH)2
  Sulfur          -94.00   -109.24  -15.24  S
  Thenardite      -10.45    -10.61   -0.16  Na2SO4
  Thermonatrite   -13.42    -13.22    0.20  Na2CO3:H2O
  Trona           -19.87    -20.17   -0.31  NaHCO3:Na2CO3:2H2O

**For a gas, SI = log10(fugacity). Fugacity = pressure * phi / 1 atm.
  For ideal gases, phi = 1.

------------------
End of simulation.
------------------

------------------------------------
Reading input data for simulation 8.
------------------------------------

-------------------------------
End of Run after 0.214 Seconds.
-------------------------------

